

        *** GPGPU-Sim Simulator Version 4.0.0  [build gpgpu-sim_git-commit-90ec3399763d7c8512cfe7dc193473086c38ca38_modified_4.0] ***


GPGPU-Sim PTX: simulation mode 0 (can change with PTX_SIM_MODE_FUNC environment variable:
               1=functional simulation only, 0=detailed performance simulator)
GPGPU-Sim PTX: overriding embedded ptx with ptx file (PTX_SIM_USE_PTX_FILE is set)
GPGPU-Sim: Configuration options:

-save_embedded_ptx                      0 # saves ptx files embedded in binary as <n>.ptx
-keep                                   0 # keep intermediate files created by GPGPU-Sim when interfacing with external programs
-gpgpu_ptx_save_converted_ptxplus                    0 # Saved converted ptxplus to a file
-gpgpu_occupancy_sm_number                  128 # The SM number to pass to ptxas when getting register usage for computing GPU occupancy. This parameter is required in the config.
-ptx_opcode_latency_int      4,13,4,5,145,32 # Opcode latencies for integers <ADD,MAX,MUL,MAD,DIV,SHFL>Default 1,1,19,25,145,32
-ptx_opcode_latency_fp          4,13,4,4,39 # Opcode latencies for single precision floating points <ADD,MAX,MUL,MAD,DIV>Default 1,1,1,1,30
-ptx_opcode_latency_dp         8,19,8,8,330 # Opcode latencies for double precision floating points <ADD,MAX,MUL,MAD,DIV>Default 8,8,8,8,335
-ptx_opcode_latency_sfu                   20 # Opcode latencies for SFU instructionsDefault 8
-ptx_opcode_latency_tesnor                   64 # Opcode latencies for Tensor instructionsDefault 64
-ptx_opcode_initiation_int          1,1,1,1,4,4 # Opcode initiation intervals for integers <ADD,MAX,MUL,MAD,DIV,SHFL>Default 1,1,4,4,32,4
-ptx_opcode_initiation_fp            1,2,1,1,4 # Opcode initiation intervals for single precision floating points <ADD,MAX,MUL,MAD,DIV>Default 1,1,1,1,5
-ptx_opcode_initiation_dp          8,8,8,8,130 # Opcode initiation intervals for double precision floating points <ADD,MAX,MUL,MAD,DIV>Default 8,8,8,8,130
-ptx_opcode_initiation_sfu                    4 # Opcode initiation intervals for sfu instructionsDefault 8
-ptx_opcode_initiation_tensor                   64 # Opcode initiation intervals for tensor instructionsDefault 64
-cdp_latency         7200,8000,100,12000,1600 # CDP API latency <cudaStreamCreateWithFlags, cudaGetParameterBufferV2_init_perWarp, cudaGetParameterBufferV2_perKernel, cudaLaunchDeviceV2_init_perWarp, cudaLaunchDevicV2_perKernel>Default 7200,8000,100,12000,1600
-network_mode                           1 # Interconnection network mode
-inter_config_file   config_pascal_islip.icnt # Interconnection network config file
-icnt_in_buffer_limit                   64 # in_buffer_limit
-icnt_out_buffer_limit                   64 # out_buffer_limit
-icnt_subnets                           2 # subnets
-icnt_arbiter_algo                      1 # arbiter_algo
-icnt_verbose                           0 # inct_verbose
-icnt_grant_cycles                      1 # grant_cycles
-gpgpu_ptx_use_cuobjdump                    1 # Use cuobjdump to extract ptx and sass from binaries
-gpgpu_experimental_lib_support                    0 # Try to extract code from cuda libraries [Broken because of unknown cudaGetExportTable]
-checkpoint_option                      0 #  checkpointing flag (0 = no checkpoint)
-checkpoint_kernel                      1 #  checkpointing during execution of which kernel (1- 1st kernel)
-checkpoint_CTA                         0 #  checkpointing after # of CTA (< less than total CTA)
-resume_option                          0 #  resume flag (0 = no resume)
-resume_kernel                          0 #  Resume from which kernel (1= 1st kernel)
-resume_CTA                             0 #  resume from which CTA 
-checkpoint_CTA_t                       0 #  resume from which CTA 
-checkpoint_insn_Y                      0 #  resume from which CTA 
-gpgpu_ptx_convert_to_ptxplus                    0 # Convert SASS (native ISA) to ptxplus and run ptxplus
-gpgpu_ptx_force_max_capability                   61 # Force maximum compute capability
-gpgpu_ptx_inst_debug_to_file                    0 # Dump executed instructions' debug information to file
-gpgpu_ptx_inst_debug_file       inst_debug.txt # Executed instructions' debug output file
-gpgpu_ptx_inst_debug_thread_uid                    1 # Thread UID for executed instructions' debug output
-gpgpu_simd_model                       1 # 1 = post-dominator
-gpgpu_shader_core_pipeline              2048:32 # shader core pipeline config, i.e., {<nthread>:<warpsize>}
-gpgpu_tex_cache:l1  N:16:128:24,L:R:m:N:L,T:128:4,128:2 # per-shader L1 texture cache  (READ-ONLY) config  {<nsets>:<bsize>:<assoc>,<rep>:<wr>:<alloc>:<wr_alloc>,<mshr>:<N>:<merge>,<mq>:<rf>}
-gpgpu_const_cache:l1 N:512:64:2,L:R:f:N:L,S:2:64,4 # per-shader L1 constant memory cache  (READ-ONLY) config  {<nsets>:<bsize>:<assoc>,<rep>:<wr>:<alloc>:<wr_alloc>,<mshr>:<N>:<merge>,<mq>} 
-gpgpu_cache:il1     N:8:128:4,L:R:f:N:L,S:2:48,4 # shader L1 instruction cache config  {<nsets>:<bsize>:<assoc>,<rep>:<wr>:<alloc>:<wr_alloc>,<mshr>:<N>:<merge>,<mq>} 
-gpgpu_cache:dl1     S:4:128:96,L:L:s:N:L,A:256:8,16:0,32 # per-shader L1 data cache config  {<nsets>:<bsize>:<assoc>,<rep>:<wr>:<alloc>:<wr_alloc>,<mshr>:<N>:<merge>,<mq> | none}
-gpgpu_l1_banks                         2 # The number of L1 cache banks
-gpgpu_l1_banks_byte_interleaving                   32 # l1 banks byte interleaving granularity
-gpgpu_l1_banks_hashing_function                    0 # l1 banks hashing function
-gpgpu_l1_latency                      82 # L1 Hit Latency
-gpgpu_smem_latency                    24 # smem Latency
-gpgpu_cache:dl1PrefL1 S:4:128:96,L:L:s:N:L,A:256:8,16:0,32 # per-shader L1 data cache config  {<nsets>:<bsize>:<assoc>,<rep>:<wr>:<alloc>:<wr_alloc>,<mshr>:<N>:<merge>,<mq> | none}
-gpgpu_cache:dl1PrefShared S:4:128:96,L:L:s:N:L,A:256:8,16:0,32 # per-shader L1 data cache config  {<nsets>:<bsize>:<assoc>,<rep>:<wr>:<alloc>:<wr_alloc>,<mshr>:<N>:<merge>,<mq> | none}
-gpgpu_gmem_skip_L1D                    1 # global memory access skip L1D cache (implements -Xptxas -dlcm=cg, default=no skip)
-gpgpu_perfect_mem                      0 # enable perfect memory mode (no cache miss)
-n_regfile_gating_group                    4 # group of lanes that should be read/written together)
-gpgpu_clock_gated_reg_file                    0 # enable clock gated reg file for power calculations
-gpgpu_clock_gated_lanes                    0 # enable clock gated lanes for power calculations
-gpgpu_shader_registers                65536 # Number of registers per shader core. Limits number of concurrent CTAs. (default 8192)
-gpgpu_registers_per_block                 8192 # Maximum number of registers per CTA. (default 8192)
-gpgpu_ignore_resources_limitation                    1 # gpgpu_ignore_resources_limitation (default 0)
-gpgpu_shader_cta                      32 # Maximum number of concurrent CTAs in shader (default 8)
-gpgpu_num_cta_barriers                   16 # Maximum number of named barriers per CTA (default 16)
-gpgpu_n_clusters                       1 # number of processing clusters
-gpgpu_n_cores_per_cluster                   14 # number of simd cores per cluster
-gpgpu_n_cluster_ejection_buffer_size                   32 # number of packets in ejection buffer
-gpgpu_n_ldst_response_buffer_size                    2 # number of response packets in ld/st unit ejection buffer
-gpgpu_shmem_per_block                49152 # Size of shared memory per thread block or CTA (default 48kB)
-gpgpu_shmem_size                   98304 # Size of shared memory per shader core (default 16kB)
-gpgpu_adaptive_cache_config                    0 # adaptive_cache_config
-gpgpu_shmem_sizeDefault                98304 # Size of shared memory per shader core (default 16kB)
-gpgpu_shmem_size_PrefL1                98304 # Size of shared memory per shader core (default 16kB)
-gpgpu_shmem_size_PrefShared                98304 # Size of shared memory per shader core (default 16kB)
-gpgpu_shmem_num_banks                   32 # Number of banks in the shared memory in each shader core (default 16)
-gpgpu_shmem_limited_broadcast                    0 # Limit shared memory to do one broadcast per cycle (default on)
-gpgpu_shmem_warp_parts                    1 # Number of portions a warp is divided into for shared memory bank conflict check 
-gpgpu_mem_unit_ports                    1 # The number of memory transactions allowed per core cycle
-gpgpu_shmem_warp_parts                    1 # Number of portions a warp is divided into for shared memory bank conflict check 
-gpgpu_warpdistro_shader                   -1 # Specify which shader core to collect the warp size distribution from
-gpgpu_warp_issue_shader                    0 # Specify which shader core to collect the warp issue distribution from
-gpgpu_local_mem_map                    1 # Mapping from local memory space address to simulated GPU physical address space (default = enabled)
-gpgpu_num_reg_banks                   16 # Number of register banks (default = 8)
-gpgpu_reg_bank_use_warp_id                    0 # Use warp ID in mapping registers to banks (default = off)
-gpgpu_sub_core_model                    1 # Sub Core Volta/Pascal model (default = off)
-gpgpu_enable_specialized_operand_collector                    0 # enable_specialized_operand_collector
-gpgpu_operand_collector_num_units_sp                    4 # number of collector units (default = 4)
-gpgpu_operand_collector_num_units_dp                    0 # number of collector units (default = 0)
-gpgpu_operand_collector_num_units_sfu                    4 # number of collector units (default = 4)
-gpgpu_operand_collector_num_units_int                    0 # number of collector units (default = 0)
-gpgpu_operand_collector_num_units_tensor_core                    4 # number of collector units (default = 4)
-gpgpu_operand_collector_num_units_mem                    2 # number of collector units (default = 2)
-gpgpu_operand_collector_num_units_gen                    8 # number of collector units (default = 0)
-gpgpu_operand_collector_num_in_ports_sp                    1 # number of collector unit in ports (default = 1)
-gpgpu_operand_collector_num_in_ports_dp                    0 # number of collector unit in ports (default = 0)
-gpgpu_operand_collector_num_in_ports_sfu                    1 # number of collector unit in ports (default = 1)
-gpgpu_operand_collector_num_in_ports_int                    0 # number of collector unit in ports (default = 0)
-gpgpu_operand_collector_num_in_ports_tensor_core                    1 # number of collector unit in ports (default = 1)
-gpgpu_operand_collector_num_in_ports_mem                    1 # number of collector unit in ports (default = 1)
-gpgpu_operand_collector_num_in_ports_gen                    8 # number of collector unit in ports (default = 0)
-gpgpu_operand_collector_num_out_ports_sp                    1 # number of collector unit in ports (default = 1)
-gpgpu_operand_collector_num_out_ports_dp                    0 # number of collector unit in ports (default = 0)
-gpgpu_operand_collector_num_out_ports_sfu                    1 # number of collector unit in ports (default = 1)
-gpgpu_operand_collector_num_out_ports_int                    0 # number of collector unit in ports (default = 0)
-gpgpu_operand_collector_num_out_ports_tensor_core                    1 # number of collector unit in ports (default = 1)
-gpgpu_operand_collector_num_out_ports_mem                    1 # number of collector unit in ports (default = 1)
-gpgpu_operand_collector_num_out_ports_gen                    8 # number of collector unit in ports (default = 0)
-gpgpu_coalesce_arch                   61 # Coalescing arch (GT200 = 13, Fermi = 20)
-gpgpu_num_sched_per_core                    4 # Number of warp schedulers per core
-gpgpu_max_insn_issue_per_warp                    2 # Max number of instructions that can be issued per warp in one cycle by scheduler (either 1 or 2)
-gpgpu_dual_issue_diff_exec_units                    1 # should dual issue use two different execution unit resources (Default = 1)
-gpgpu_simt_core_sim_order                    1 # Select the simulation order of cores in a cluster (0=Fix, 1=Round-Robin)
-gpgpu_pipeline_widths 4,0,0,4,4,4,0,0,4,4,8 # Pipeline widths ID_OC_SP,ID_OC_DP,ID_OC_INT,ID_OC_SFU,ID_OC_MEM,OC_EX_SP,OC_EX_DP,OC_EX_INT,OC_EX_SFU,OC_EX_MEM,EX_WB,ID_OC_TENSOR_CORE,OC_EX_TENSOR_CORE
-gpgpu_tensor_core_avail                    0 # Tensor Core Available (default=0)
-gpgpu_num_sp_units                     4 # Number of SP units (default=1)
-gpgpu_num_dp_units                     0 # Number of DP units (default=0)
-gpgpu_num_int_units                    0 # Number of INT units (default=0)
-gpgpu_num_sfu_units                    4 # Number of SF units (default=1)
-gpgpu_num_tensor_core_units                    0 # Number of tensor_core units (default=1)
-gpgpu_num_mem_units                    1 # Number if ldst units (default=1) WARNING: not hooked up to anything
-gpgpu_scheduler                      gto # Scheduler configuration: < lrr | gto | two_level_active > If two_level_active:<num_active_warps>:<inner_prioritization>:<outer_prioritization>For complete list of prioritization values see shader.h enum scheduler_prioritization_typeDefault: gto
-gpgpu_concurrent_kernel_sm                    0 # Support concurrent kernels on a SM (default = disabled)
-gpgpu_perfect_inst_const_cache                    1 # perfect inst and const cache mode, so all inst and const hits in the cache(default = disabled)
-gpgpu_inst_fetch_throughput                    8 # the number of fetched intruction per warp each cycle
-gpgpu_reg_file_port_throughput                    2 # the number ports of the register file
-specialized_unit_1         0,4,4,4,4,BRA # specialized unit config {<enabled>,<num_units>:<latency>:<initiation>,<ID_OC_SPEC>:<OC_EX_SPEC>,<NAME>}
-specialized_unit_2         0,4,4,4,4,BRA # specialized unit config {<enabled>,<num_units>:<latency>:<initiation>,<ID_OC_SPEC>:<OC_EX_SPEC>,<NAME>}
-specialized_unit_3         0,4,4,4,4,BRA # specialized unit config {<enabled>,<num_units>:<latency>:<initiation>,<ID_OC_SPEC>:<OC_EX_SPEC>,<NAME>}
-specialized_unit_4         0,4,4,4,4,BRA # specialized unit config {<enabled>,<num_units>:<latency>:<initiation>,<ID_OC_SPEC>:<OC_EX_SPEC>,<NAME>}
-specialized_unit_5         0,4,4,4,4,BRA # specialized unit config {<enabled>,<num_units>:<latency>:<initiation>,<ID_OC_SPEC>:<OC_EX_SPEC>,<NAME>}
-specialized_unit_6         0,4,4,4,4,BRA # specialized unit config {<enabled>,<num_units>:<latency>:<initiation>,<ID_OC_SPEC>:<OC_EX_SPEC>,<NAME>}
-specialized_unit_7         0,4,4,4,4,BRA # specialized unit config {<enabled>,<num_units>:<latency>:<initiation>,<ID_OC_SPEC>:<OC_EX_SPEC>,<NAME>}
-specialized_unit_8         0,4,4,4,4,BRA # specialized unit config {<enabled>,<num_units>:<latency>:<initiation>,<ID_OC_SPEC>:<OC_EX_SPEC>,<NAME>}
-gpgpu_perf_sim_memcpy                    1 # Fill the L2 cache on memcpy
-gpgpu_simple_dram_model                    0 # simple_dram_model with fixed latency and BW
-gpgpu_dram_scheduler                    1 # 0 = fifo, 1 = FR-FCFS (defaul)
-gpgpu_dram_partition_queues          32:32:32:32 # i2$:$2d:d2$:$2i
-l2_ideal                               0 # Use a ideal L2 cache that always hit
-gpgpu_cache:dl2     S:64:128:256,L:B:m:L:P,A:256:64,16:0,32 # unified banked L2 data cache config  {<nsets>:<bsize>:<assoc>,<rep>:<wr>:<alloc>:<wr_alloc>,<mshr>:<N>:<merge>,<mq>}
-gpgpu_cache:dl2_texture_only                    0 # L2 cache used for texture only
-gpgpu_n_mem                            8 # number of memory modules (e.g. memory controllers) in gpu
-gpgpu_n_sub_partition_per_mchannel                    2 # number of memory subpartition in each memory module
-gpgpu_n_mem_per_ctrlr                    1 # number of memory chips per memory controller
-gpgpu_memlatency_stat                   14 # track and display latency statistics 0x2 enables MC, 0x4 enables queue logs
-gpgpu_frfcfs_dram_sched_queue_size                   64 # 0 = unlimited (default); # entries per chip
-gpgpu_dram_return_queue_size                   64 # 0 = unlimited (default); # entries per chip
-gpgpu_dram_buswidth                    4 # default = 4 bytes (8 bytes per cycle at DDR)
-gpgpu_dram_burst_length                    8 # Burst length of each DRAM request (default = 4 data bus cycle)
-dram_data_command_freq_ratio                    4 # Frequency ratio between DRAM data bus and command bus (default = 2 times, i.e. DDR)
-gpgpu_dram_timing_opt nbk=16:CCD=2:RRD=8:RCD=16:RAS=37:RP=16:RC=52: CL=16:WL=6:CDLR=7:WR=16:nbkgrp=4:CCDL=4:RTPL=3 # DRAM timing parameters = {nbk:tCCD:tRRD:tRCD:tRAS:tRP:tRC:CL:WL:tCDLR:tWR:nbkgrp:tCCDL:tRTPL}
-gpgpu_l2_rop_latency                  120 # ROP queue latency (default 85)
-dram_latency                         100 # DRAM latency (default 30)
-dram_dual_bus_interface                    0 # dual_bus_interface (default = 0) 
-dram_bnk_indexing_policy                    0 # dram_bnk_indexing_policy (0 = normal indexing, 1 = Xoring with the higher bits) (Default = 0)
-dram_bnkgrp_indexing_policy                    1 # dram_bnkgrp_indexing_policy (0 = take higher bits, 1 = take lower bits) (Default = 0)
-dram_seperate_write_queue_enable                    0 # Seperate_Write_Queue_Enable
-dram_write_queue_size             32:28:16 # Write_Queue_Size
-dram_elimnate_rw_turnaround                    0 # elimnate_rw_turnaround i.e set tWTR and tRTW = 0
-icnt_flit_size                        40 # icnt_flit_size
-gpgpu_mem_addr_mapping dramid@8;00000000.00000000.00000000.00000000.0000RRRR.RRRRRRRR.RBBBCCCC.BCCSSSSS # mapping memory address to dram model {dramid@<start bit>;<memory address map>}
-gpgpu_mem_addr_test                    0 # run sweep test to check address mapping for aliased address
-gpgpu_mem_address_mask                    1 # 0 = old addressing mask, 1 = new addressing mask, 2 = new add. mask + flipped bank sel and chip sel bits
-gpgpu_memory_partition_indexing                    0 # 0 = no indexing, 1 = bitwise xoring, 2 = IPoly, 3 = custom indexing
-gpuwattch_xml_file         gpuwattch.xml # GPUWattch XML file
-power_simulation_enabled                    0 # Turn on power simulator (1=On, 0=Off)
-power_per_cycle_dump                    0 # Dump detailed power output each cycle
-power_trace_enabled                    0 # produce a file for the power trace (1=On, 0=Off)
-power_trace_zlevel                     6 # Compression level of the power trace output log (0=no comp, 9=highest)
-steady_power_levels_enabled                    0 # produce a file for the steady power levels (1=On, 0=Off)
-steady_state_definition                  8:4 # allowed deviation:number of samples
-gpgpu_max_cycle                        0 # terminates gpu simulation early (0 = no limit)
-gpgpu_max_insn                         0 # terminates gpu simulation early (0 = no limit)
-gpgpu_max_cta                          0 # terminates gpu simulation early (0 = no limit)
-gpgpu_max_completed_cta                    0 # terminates gpu simulation early (0 = no limit)
-gpgpu_runtime_stat                   500 # display runtime statistics such as dram utilization {<freq>:<flag>}
-liveness_message_freq                    1 # Minimum number of seconds between simulation liveness messages (0 = always print)
-gpgpu_compute_capability_major                    6 # Major compute capability version number
-gpgpu_compute_capability_minor                    1 # Minor compute capability version number
-gpgpu_flush_l1_cache                    1 # Flush L1 cache at the end of each kernel call
-gpgpu_flush_l2_cache                    0 # Flush L2 cache at the end of each kernel call
-gpgpu_deadlock_detect                    1 # Stop the simulation at deadlock (1=on (default), 0=off)
-gpgpu_ptx_instruction_classification                    0 # if enabled will classify ptx instruction types per kernel (Max 255 kernels now)
-gpgpu_ptx_sim_mode                     0 # Select between Performance (default) or Functional simulation (1)
-gpgpu_clock_domains 1480.0:1480.0:1480.0:3802.0 # Clock Domain Frequencies in MhZ {<Core Clock>:<ICNT Clock>:<L2 Clock>:<DRAM Clock>}
-gpgpu_max_concurrent_kernel                    8 # maximum kernels that can run concurrently on GPU
-gpgpu_cflog_interval                    0 # Interval between each snapshot in control flow logger
-visualizer_enabled                     0 # Turn on visualizer output (1=On, 0=Off)
-visualizer_outputfile                 NULL # Specifies the output log file for visualizer
-visualizer_zlevel                      6 # Compression level of the visualizer output log (0=no comp, 9=highest)
-gpgpu_stack_size_limit                 1024 # GPU thread stack size
-gpgpu_heap_size_limit             123cff7c01ccb5f59c8f7873e5a50929  /home/burak/gpgpu-sim-4.0/gpgpu-sim_distribution/fdtd2d
Extracting PTX file and ptxas options    1: fdtd2d.1.sm_52.ptx -arch=sm_52
 8388608 # GPU malloc heap size 
-gpgpu_runtime_sync_depth_limit                    2 # GPU device runtime synchronize depth
-gpgpu_runtime_pending_launch_count_limit                 2048 # GPU device runtime pending launch count
-trace_enabled                          0 # Turn on traces
-trace_components                    none # comma seperated list of traces to enable. Complete list found in trace_streams.tup. Default none
-trace_sampling_core                    0 # The core which is printed using CORE_DPRINTF. Default 0
-trace_sampling_memory_partition                   -1 # The memory partition which is printed using MEMPART_DPRINTF. Default -1 (i.e. all)
-enable_ptx_file_line_stats                    1 # Turn on PTX source line statistic profiling. (1 = On)
-ptx_line_stats_filename gpgpu_inst_stats.txt # Output file for PTX source line statistics.
-gpgpu_kernel_launch_latency                 5000 # Kernel launch latency in cycles. Default: 0
-gpgpu_cdp_enabled                      0 # Turn on CDP
-gpgpu_TB_launch_latency                    0 # thread block launch latency in cycles. Default: 0
DRAM Timing Options:
nbk                                    16 # number of banks
CCD                                     2 # column to column delay
RRD                                     8 # minimal delay between activation of rows in different banks
RCD                                    16 # row to column delay
RAS                                    37 # time needed to activate row
RP                                     16 # time needed to precharge (deactivate) row
RC                                     52 # row cycle time
CDLR                                    7 # switching from write to read (changes tWTR)
WR                                     16 # last data-in to row precharge
CL                                     16 # CAS latency
WL                                      6 # Write latency
nbkgrp                                  4 # number of bank groups
CCDL                                    4 # column to column delay between accesses to different bank groups
RTPL                                    3 # read to precharge delay between accesses to different bank groups
Total number of memory sub partition = 16
addr_dec_mask[CHIP]  = 0000000000000700 	high:11 low:8
addr_dec_mask[BK]    = 0000000000038080 	high:18 low:7
addr_dec_mask[ROW]   = 000000007ffc0000 	high:31 low:18
addr_dec_mask[COL]   = 000000000000787f 	high:15 low:0
addr_dec_mask[BURST] = 000000000000001f 	high:5 low:0
sub_partition_id_mask = 0000000000000080
self exe links to: /home/burak/gpgpu-sim-4.0/gpgpu-sim_distribution/fdtd2d
self exe links to: /home/burak/gpgpu-sim-4.0/gpgpu-sim_distribution/fdtd2d
11.0
GPGPU-Sim PTX: __cudaRegisterFatBinary, fat_cubin_handle = 1, filename=default
self exe links to: /home/burak/gpgpu-sim-4.0/gpgpu-sim_distribution/fdtd2d
Running md5sum using "md5sum /home/burak/gpgpu-sim-4.0/gpgpu-sim_distribution/fdtd2d "
self exe links to: /home/burak/gpgpu-sim-4.0/gpgpu-sim_distribution/fdtd2d
Extracting specific PTX file named fdtd2d.1.sm_52.ptx 
GPGPU-Sim PTX: __cudaRegisterFunction _Z17fdtd_step3_kernelPfS_S_i : hostFun 0x0x558539f14062, fat_cubin_handle = 1
GPGPU-Sim PTX: Parsing fdtd2d.1.sm_52.ptx
GPGPU-Sim PTX: instruction assembly for function '_Z17fdtd_step1_kernelPfS_S_S_i'...   done.
GPGPU-Sim PTX: instruction assembly for function '_Z17fdtd_step2_kernelPfS_S_i'...   done.
GPGPU-Sim PTX: instruction assembly for function '_Z17fdtd_step3_kernelPfS_S_i'...   done.
GPGPU-Sim PTX: finished parsing EMBEDDED .ptx file fdtd2d.1.sm_52.ptx
GPGPU-Sim PTX: loading globals with explicit initializers... 
GPGPU-Sim PTX: finished loading globals (0 bytes total).
GPGPU-Sim PTX: loading constants with explicit initializers...  done.
GPGPU-Sim PTX: Loading PTXInfo from fdtd2d.1.sm_52.ptx
GPGPU-Sim PTX: Kernel '_Z17fdtd_step3_kernelPfS_S_i' : regs=14, lmem=0, smem=0, cmem=352
GPGPU-Sim PTX: Kernel '_Z17fdtd_step2_kernelPfS_S_i' : regs=10, lmem=0, smem=0, cmem=348
GPGPU-Sim PTX: Kernel '_Z17fdtd_step1_kernelPfS_S_S_i' : regs=10, lmem=0, smem=0, cmem=356
GPGPU-Sim PTX: __cudaRegisterFunction _Z17fdtd_step2_kernelPfS_S_i : hostFun 0x0x558539f13ec5, fat_cubin_handle = 1
GPGPU-Sim PTX: __cudaRegisterFunction _Z17fdtd_step1_kernelPfS_S_S_i : hostFun 0x0x558539f13d1c, fat_cubin_handle = 1
setting device 0 with name GPGPU-Sim_vGPGPU-Sim Simulator Version 4.0.0 
GPGPU-Sim PTX: Setting up arguments for 8 bytes starting at 0x7ffda5e26f28..
GPGPU-Sim PTX: Setting up arguments for 8 bytes starting at 0x7ffda5e26f20..
GPGPU-Sim PTX: Setting up arguments for 8 bytes starting at 0x7ffda5e26f18..
GPGPU-Sim PTX: Setting up arguments for 8 bytes starting at 0x7ffda5e26f10..
GPGPU-Sim PTX: Setting up arguments for 4 bytes starting at 0x7ffda5e26f0c..

GPGPU-Sim PTX: cudaLaunch for 0x0x558539f13d1c (mode=performance simulation) on stream 0
GPGPU-Sim PTX: finding reconvergence points for '_Z17fdtd_step1_kernelPfS_S_S_i'...
GPGPU-Sim PTX: Finding dominators for '_Z17fdtd_step1_kernelPfS_S_S_i'...
GPGPU-Sim PTX: Finding immediate dominators for '_Z17fdtd_step1_kernelPfS_S_S_i'...
GPGPU-Sim PTX: Finding postdominators for '_Z17fdtd_step1_kernelPfS_S_S_i'...
GPGPU-Sim PTX: Finding immediate postdominators for '_Z17fdtd_step1_kernelPfS_S_S_i'...
GPGPU-Sim PTX: pre-decoding instructions for '_Z17fdtd_step1_kernelPfS_S_S_i'...
GPGPU-Sim PTX: reconvergence points for _Z17fdtd_step1_kernelPfS_S_S_i...
GPGPU-Sim PTX:  1 (potential) branch divergence @  PC=0x080 (fdtd2d.1.sm_52.ptx:45) @!%p3 bra BB0_4;
GPGPU-Sim PTX:    immediate post dominator      @  PC=0x158 (fdtd2d.1.sm_52.ptx:79) ret;
GPGPU-Sim PTX:  2 (potential) branch divergence @  PC=0x088 (fdtd2d.1.sm_52.ptx:46) bra.uni BB0_1;
GPGPU-Sim PTX:    immediate post dominator      @  PC=0x090 (fdtd2d.1.sm_52.ptx:49) setp.eq.s32%p4, %r2, 0;
GPGPU-Sim PTX:  3 (potential) branch divergence @  PC=0x098 (fdtd2d.1.sm_52.ptx:50) @%p4 bra BB0_3;
GPGPU-Sim PTX:    immediate post dominator      @  PC=0x158 (fdtd2d.1.sm_52.ptx:79) ret;
GPGPU-Sim PTX:  4 (potential) branch divergence @  PC=0x118 (fdtd2d.1.sm_52.ptx:67) bra.uni BB0_4;
GPGPU-Sim PTX:    immediate post dominator      @  PC=0x158 (fdtd2d.1.sm_52.ptx:79) ret;
GPGPU-Sim PTX: ... end of reconvergence points for _Z17fdtd_step1_kernelPfS_S_S_i
GPGPU-Sim PTX: ... done pre-decoding instructions for '_Z17fdtd_step1_kernelPfS_S_S_i'.
GPGPU-Sim PTX: pushing kernel '_Z17fdtd_step1_kernelPfS_S_S_i' to stream 0, gridDim= (64,256,1) blockDim = (32,8,1) 
GPGPU-Sim uArch: Shader 0 bind to kernel 1 '_Z17fdtd_step1_kernelPfS_S_S_i'
GPGPU-Sim uArch: CTA/core = 8, limited by: threads
GPGPU-Sim uArch: Shader 1 bind to kernel 1 '_Z17fdtd_step1_kernelPfS_S_S_i'
GPGPU-Sim uArch: Shader 2 bind to kernel 1 '_Z17fdtd_step1_kernelPfS_S_S_i'
GPGPU-Sim uArch: Shader 3 bind to kernel 1 '_Z17fdtd_step1_kernelPfS_S_S_i'
GPGPU-Sim uArch: Shader 4 bind to kernel 1 '_Z17fdtd_step1_kernelPfS_S_S_i'
GPGPU-Sim uArch: Shader 5 bind to kernel 1 '_Z17fdtd_step1_kernelPfS_S_S_i'
GPGPU-Sim uArch: Shader 6 bind to kernel 1 '_Z17fdtd_step1_kernelPfS_S_S_i'
GPGPU-Sim uArch: Shader 7 bind to kernel 1 '_Z17fdtd_step1_kernelPfS_S_S_i'
GPGPU-Sim uArch: Shader 8 bind to kernel 1 '_Z17fdtd_step1_kernelPfS_S_S_i'
GPGPU-Sim uArch: Shader 9 bind to kernel 1 '_Z17fdtd_step1_kernelPfS_S_S_i'
GPGPU-Sim uArch: Shader 10 bind to kernel 1 '_Z17fdtd_step1_kernelPfS_S_S_i'
GPGPU-Sim uArch: Shader 11 bind to kernel 1 '_Z17fdtd_step1_kernelPfS_S_S_i'
GPGPU-Sim uArch: Shader 12 bind to kernel 1 '_Z17fdtd_step1_kernelPfS_S_S_i'
GPGPU-Sim uArch: Shader 13 bind to kernel 1 '_Z17fdtd_step1_kernelPfS_S_S_i'
Destroy streams for kernel 1: size 0
kernel_name = _Z17fdtd_step1_kernelPfS_S_S_i 
kernel_launch_uid = 1 
gpu_sim_cycle = 2101933
gpu_sim_insn = 146784256
gpu_ipc =      69.8330
gpu_tot_sim_cycle = 2101933
gpu_tot_sim_insn = 146784256
gpu_tot_ipc =      69.8330
gpu_tot_issued_cta = 16384
gpu_occupancy = 67.4965% 
gpu_tot_occupancy = 67.4965% 
max_total_param_size = 0
gpu_stall_dramfull = 0
gpu_stall_icnt2sh    = 0
partiton_level_parallism =       0.9974
partiton_level_parallism_total  =       0.9974
partiton_level_parallism_util =       1.0000
partiton_level_parallism_util_total  =       1.0000
L2_BW  =      47.2364 GB/Sec
L2_BW_total  =      47.2364 GB/Sec
gpu_total_sim_rate=112824
gpgpu_n_tot_thrd_icount = 155170816
gpgpu_n_tot_w_icount = 4849088
gpgpu_n_stall_shd_mem = 28289496
gpgpu_n_mem_read_local = 0
gpgpu_n_mem_write_local = 0
gpgpu_n_mem_read_global = 1572160
gpgpu_n_mem_write_global = 524288
gpgpu_n_mem_texture = 0
gpgpu_n_mem_const = 0
gpgpu_n_load_insn  = 12578816
gpgpu_n_store_insn = 4194304
gpgpu_n_shmem_insn = 0
gpgpu_n_sstarr_insn = 0
gpgpu_n_tex_insn = 0
gpgpu_n_const_mem_insn = 0
gpgpu_n_param_mem_insn = 16777216
gpgpu_n_shmem_bkconflict = 0
gpgpu_n_cache_bkconflict = 0
gpgpu_n_intrawarp_mshr_merge = 0
gpgpu_n_cmem_portconflict = 0
gpgpu_stall_shd_mem[c_mem][resource_stall] = 0
gpgpu_stall_shd_mem[s_mem][bk_conf] = 0
gpgpu_stall_shd_mem[gl_mem][resource_stall] = 0
gpgpu_stall_shd_mem[gl_mem][coal_stall] = 1572288
gpgpu_stall_shd_mem[gl_mem][data_port_stall] = 0
gpu_reg_bank_conflict_stalls = 0
Warp Occupancy Distribution:
Stall:112170390	
W0_Idle:92816	
W0_Scoreboard:397684	
W1:0	W2:0	W3:0	W4:0	W5:0	W6:0	W7:0	W8:0	W9:0	W10:0	W11:0	W12:0	W13:0	W14:0	W15:0	W16:0	W17:0	W18:0	W19:0	W20:0	W21:0	W22:0	W23:0	W24:0	W25:0	W26:0	W27:0	W28:0	W29:0	W30:0	
W31:0	
W32:4849088
single_issue_nums: WS0:1153060	WS1:1153478	WS2:1153582	WS3:1153804	
dual_issue_nums: WS0:29390	WS1:29469	WS2:29417	WS3:29306	
traffic_breakdown_coretomem[GLOBAL_ACC_R] = 12577280 {8:1572160,}
traffic_breakdown_coretomem[GLOBAL_ACC_W] = 20971520 {40:524288,}
traffic_breakdown_memtocore[GLOBAL_ACC_R] = 62886400 {40:1572160,}
traffic_breakdown_memtocore[GLOBAL_ACC_W] = 4194304 {8:524288,}
Memory Partition 0: 
Cache L2_bank_000:
MSHR contents

Cache L2_bank_001:
MSHR contents

In Dram Latency Queue (total = 0): 
DRAM[0]: 16 bks, busW=4 BL=8 CL=16, tRRD=8 tCCD=2, tRCD=16 tRAS=37 tRP=16 tRC=52
n_cmd=5399693 n_nop=5389116 n_act=396 n_pre=380 n_ref_event=0 n_req=9798 n_rd=9797 n_rd_L2_A=0 n_write=0 n_wr_bk=4 bw_util=0.00363
n_activity=150805 dram_eff=0.13
bk0: 673a 5398458i bk1: 604a 5399072i bk2: 640a 5398650i bk3: 576a 5399183i bk4: 632a 5398661i bk5: 576a 5399178i bk6: 640a 5398658i bk7: 576a 5399175i bk8: 644a 5398635i bk9: 584a 5399149i bk10: 644a 5398578i bk11: 576a 5399171i bk12: 640a 5398646i bk13: 576a 5399170i bk14: 640a 5398644i bk15: 576a 5399164i 

------------------------------------------------------------------------

Row_Buffer_Locality = 0.959584
Row_Buffer_Locality_read = 0.959682
Row_Buffer_Locality_write = 0.000000
Bank_Level_Parallism = 1.003464
Bank_Level_Parallism_Col = 1.001456
Bank_Level_Parallism_Ready = 1.000000
write_to_read_ratio_blp_rw_average = 0.002121
GrpLevelPara = 1.001456 

BW Util details:
bwutil = 0.003630 
total_CMD = 5399693 
util_bw = 19602 
Wasted_Col = 6370 
Wasted_Row = 6035 
Idle = 5367686 

BW Util Bottlenecks: 
RCDc_limit = 6305 
RCDWRc_limit = 8 
WTRc_limit = 5 
RTWc_limit = 14 
CCDLc_limit = 54 
rwq = 0 
CCDLc_limit_alone = 54 
WTRc_limit_alone = 5 
RTWc_limit_alone = 14 

Commands details: 
total_CMD = 5399693 
n_nop = 5389116 
Read = 9797 
Write = 0 
L2_Alloc = 0 
L2_WB = 4 
n_act = 396 
n_pre = 380 
n_ref = 0 
n_req = 9798 
total_req = 9801 

Dual Bus Interface Util: 
issued_total_row = 776 
issued_total_col = 9801 
Row_Bus_Util =  0.000144 
CoL_Bus_Util = 0.001815 
Either_Row_CoL_Bus_Util = 0.001959 
Issued_on_Two_Bus_Simul_Util = 0.000000 
issued_two_Eff = 0.000000 
queue_avg = 0.000022 


dram_util_bins: 0 0 0 0 0 0 0 0 0 0
dram_eff_bins: 0 0 0 0 0 0 0 0 0 0
mrqq: max=3 avg=2.24087e-05
Memory Partition 1: 
Cache L2_bank_002:
MSHR contents

Cache L2_bank_003:
MSHR contents

In Dram Latency Queue (total = 0): 
DRAM[1]: 16 bks, busW=4 BL=8 CL=16, tRRD=8 tCCD=2, tRCD=16 tRAS=37 tRP=16 tRC=52
n_cmd=5399693 n_nop=5389873 n_act=266 n_pre=250 n_ref_event=0 n_req=9295 n_rd=9292 n_rd_L2_A=0 n_write=0 n_wr_bk=12 bw_util=0.003446
n_activity=138206 dram_eff=0.1346
bk0: 608a 5399065i bk1: 608a 5399052i bk2: 576a 5399131i bk3: 576a 5399108i bk4: 572a 5399180i bk5: 576a 5399178i bk6: 576a 5399167i bk7: 576a 5399178i bk8: 584a 5399150i bk9: 584a 5399152i bk10: 576a 5399181i bk11: 576a 5399179i bk12: 576a 5399178i bk13: 576a 5399179i bk14: 576a 5399179i bk15: 576a 5399183i 

------------------------------------------------------------------------

Row_Buffer_Locality = 0.971382
Row_Buffer_Locality_read = 0.971588
Row_Buffer_Locality_write = 0.333333
Bank_Level_Parallism = 1.003235
Bank_Level_Parallism_Col = 1.001644
Bank_Level_Parallism_Ready = 1.000000
write_to_read_ratio_blp_rw_average = 0.004707
GrpLevelPara = 1.001644 

BW Util details:
bwutil = 0.003446 
total_CMD = 5399693 
util_bw = 18608 
Wasted_Col = 4320 
Wasted_Row = 3965 
Idle = 5372800 

BW Util Bottlenecks: 
RCDc_limit = 4204 
RCDWRc_limit = 18 
WTRc_limit = 35 
RTWc_limit = 12 
CCDLc_limit = 61 
rwq = 0 
CCDLc_limit_alone = 61 
WTRc_limit_alone = 35 
RTWc_limit_alone = 12 

Commands details: 
total_CMD = 5399693 
n_nop = 5389873 
Read = 9292 
Write = 0 
L2_Alloc = 0 
L2_WB = 12 
n_act = 266 
n_pre = 250 
n_ref = 0 
n_req = 9295 
total_req = 9304 

Dual Bus Interface Util: 
issued_total_row = 516 
issued_total_col = 9304 
Row_Bus_Util =  0.000096 
CoL_Bus_Util = 0.001723 
Either_Row_CoL_Bus_Util = 0.001819 
Issued_on_Two_Bus_Simul_Util = 0.000000 
issued_two_Eff = 0.000000 
queue_avg = 0.000004 


dram_util_bins: 0 0 0 0 0 0 0 0 0 0
dram_eff_bins: 0 0 0 0 0 0 0 0 0 0
mrqq: max=1 avg=3.51872e-06
Memory Partition 2: 
Cache L2_bank_004:
MSHR contents

Cache L2_bank_005:
MSHR contents

In Dram Latency Queue (total = 0): 
DRAM[2]: 16 bks, busW=4 BL=8 CL=16, tRRD=8 tCCD=2, tRCD=16 tRAS=37 tRP=16 tRC=52
n_cmd=5399693 n_nop=5389895 n_act=263 n_pre=247 n_ref_event=0 n_req=9285 n_rd=9284 n_rd_L2_A=0 n_write=0 n_wr_bk=4 bw_util=0.00344
n_activity=138306 dram_eff=0.1343
bk0: 608a 5399105i bk1: 604a 5399112i bk2: 576a 5399128i bk3: 576a 5399164i bk4: 576a 5399167i bk5: 572a 5399175i bk6: 576a 5399184i bk7: 576a 5399182i bk8: 580a 5399148i bk9: 584a 5399148i bk10: 576a 5399178i bk11: 576a 5399175i bk12: 576a 5399177i bk13: 576a 5399182i bk14: 576a 5399188i bk15: 576a 5399192i 

------------------------------------------------------------------------

Row_Buffer_Locality = 0.971675
Row_Buffer_Locality_read = 0.971779
Row_Buffer_Locality_write = 0.000000
Bank_Level_Parallism = 1.000858
Bank_Level_Parallism_Col = 1.000678
Bank_Level_Parallism_Ready = 1.000000
write_to_read_ratio_blp_rw_average = 0.001431
GrpLevelPara = 1.000678 

BW Util details:
bwutil = 0.003440 
total_CMD = 5399693 
util_bw = 18576 
Wasted_Col = 4241 
Wasted_Row = 3942 
Idle = 5372934 

BW Util Bottlenecks: 
RCDc_limit = 4181 
RCDWRc_limit = 9 
WTRc_limit = 15 
RTWc_limit = 0 
CCDLc_limit = 38 
rwq = 0 
CCDLc_limit_alone = 38 
WTRc_limit_alone = 15 
RTWc_limit_alone = 0 

Commands details: 
total_CMD = 5399693 
n_nop = 5389895 
Read = 9284 
Write = 0 
L2_Alloc = 0 
L2_WB = 4 
n_act = 263 
n_pre = 247 
n_ref = 0 
n_req = 9285 
total_req = 9288 

Dual Bus Interface Util: 
issued_total_row = 510 
issued_total_col = 9288 
Row_Bus_Util =  0.000094 
CoL_Bus_Util = 0.001720 
Either_Row_CoL_Bus_Util = 0.001815 
Issued_on_Two_Bus_Simul_Util = 0.000000 
issued_two_Eff = 0.000000 
queue_avg = 0.000000 


dram_util_bins: 0 0 0 0 0 0 0 0 0 0
dram_eff_bins: 0 0 0 0 0 0 0 0 0 0
mrqq: max=0 avg=0
Memory Partition 3: 
Cache L2_bank_006:
MSHR contents

Cache L2_bank_007:
MSHR contents

In Dram Latency Queue (total = 0): 
DRAM[3]: 16 bks, busW=4 BL=8 CL=16, tRRD=8 tCCD=2, tRCD=16 tRAS=37 tRP=16 tRC=52
n_cmd=5399693 n_nop=5389869 n_act=266 n_pre=250 n_ref_event=0 n_req=9299 n_rd=9296 n_rd_L2_A=0 n_write=0 n_wr_bk=12 bw_util=0.003448
n_activity=138805 dram_eff=0.1341
bk0: 608a 5399084i bk1: 608a 5399053i bk2: 576a 5399120i bk3: 576a 5399122i bk4: 576a 5399164i bk5: 576a 5399173i bk6: 576a 5399173i bk7: 576a 5399183i bk8: 584a 5399149i bk9: 584a 5399153i bk10: 576a 5399187i bk11: 576a 5399175i bk12: 576a 5399160i bk13: 576a 5399170i bk14: 576a 5399175i bk15: 576a 5399187i 

------------------------------------------------------------------------

Row_Buffer_Locality = 0.971395
Row_Buffer_Locality_read = 0.971601
Row_Buffer_Locality_write = 0.333333
Bank_Level_Parallism = 1.004998
Bank_Level_Parallism_Col = 1.002091
Bank_Level_Parallism_Ready = 1.000000
write_to_read_ratio_blp_rw_average = 0.004892
GrpLevelPara = 1.002091 

BW Util details:
bwutil = 0.003448 
total_CMD = 5399693 
util_bw = 18616 
Wasted_Col = 4320 
Wasted_Row = 3954 
Idle = 5372803 

BW Util Bottlenecks: 
RCDc_limit = 4215 
RCDWRc_limit = 17 
WTRc_limit = 33 
RTWc_limit = 14 
CCDLc_limit = 77 
rwq = 0 
CCDLc_limit_alone = 77 
WTRc_limit_alone = 33 
RTWc_limit_alone = 14 

Commands details: 
total_CMD = 5399693 
n_nop = 5389869 
Read = 9296 
Write = 0 
L2_Alloc = 0 
L2_WB = 12 
n_act = 266 
n_pre = 250 
n_ref = 0 
n_req = 9299 
total_req = 9308 

Dual Bus Interface Util: 
issued_total_row = 516 
issued_total_col = 9308 
Row_Bus_Util =  0.000096 
CoL_Bus_Util = 0.001724 
Either_Row_CoL_Bus_Util = 0.001819 
Issued_on_Two_Bus_Simul_Util = 0.000000 
issued_two_Eff = 0.000000 
queue_avg = 0.000006 


dram_util_bins: 0 0 0 0 0 0 0 0 0 0
dram_eff_bins: 0 0 0 0 0 0 0 0 0 0
mrqq: max=1 avg=5.92626e-06
Memory Partition 4: 
Cache L2_bank_008:
MSHR contents

Cache L2_bank_009:
MSHR contents

In Dram Latency Queue (total = 0): 
DRAM[4]: 16 bks, busW=4 BL=8 CL=16, tRRD=8 tCCD=2, tRCD=16 tRAS=37 tRP=16 tRC=52
n_cmd=5399693 n_nop=5389875 n_act=265 n_pre=249 n_ref_event=0 n_req=9295 n_rd=9292 n_rd_L2_A=0 n_write=0 n_wr_bk=12 bw_util=0.003446
n_activity=138602 dram_eff=0.1343
bk0: 604a 5399104i bk1: 608a 5399044i bk2: 576a 5399125i bk3: 576a 5399132i bk4: 576a 5399165i bk5: 576a 5399170i bk6: 576a 5399180i bk7: 576a 5399188i bk8: 584a 5399157i bk9: 584a 5399151i bk10: 576a 5399177i bk11: 576a 5399172i bk12: 576a 5399175i bk13: 576a 5399179i bk14: 576a 5399183i bk15: 576a 5399187i 

------------------------------------------------------------------------

Row_Buffer_Locality = 0.971490
Row_Buffer_Locality_read = 0.971696
Row_Buffer_Locality_write = 0.333333
Bank_Level_Parallism = 1.003129
Bank_Level_Parallism_Col = 1.001647
Bank_Level_Parallism_Ready = 1.000000
write_to_read_ratio_blp_rw_average = 0.003743
GrpLevelPara = 1.001647 

BW Util details:
bwutil = 0.003446 
total_CMD = 5399693 
util_bw = 18608 
Wasted_Col = 4292 
Wasted_Row = 3951 
Idle = 5372842 

BW Util Bottlenecks: 
RCDc_limit = 4194 
RCDWRc_limit = 18 
WTRc_limit = 43 
RTWc_limit = 0 
CCDLc_limit = 60 
rwq = 0 
CCDLc_limit_alone = 60 
WTRc_limit_alone = 43 
RTWc_limit_alone = 0 

Commands details: 
total_CMD = 5399693 
n_nop = 5389875 
Read = 9292 
Write = 0 
L2_Alloc = 0 
L2_WB = 12 
n_act = 265 
n_pre = 249 
n_ref = 0 
n_req = 9295 
total_req = 9304 

Dual Bus Interface Util: 
issued_total_row = 514 
issued_total_col = 9304 
Row_Bus_Util =  0.000095 
CoL_Bus_Util = 0.001723 
Either_Row_CoL_Bus_Util = 0.001818 
Issued_on_Two_Bus_Simul_Util = 0.000000 
issued_two_Eff = 0.000000 
queue_avg = 0.000027 


dram_util_bins: 0 0 0 0 0 0 0 0 0 0
dram_eff_bins: 0 0 0 0 0 0 0 0 0 0
mrqq: max=3 avg=2.66682e-05
Memory Partition 5: 
Cache L2_bank_010:
MSHR contents

Cache L2_bank_011:
MSHR contents

In Dram Latency Queue (total = 0): 
DRAM[5]: 16 bks, busW=4 BL=8 CL=16, tRRD=8 tCCD=2, tRCD=16 tRAS=37 tRP=16 tRC=52
n_cmd=5399693 n_nop=5389873 n_act=264 n_pre=248 n_ref_event=0 n_req=9287 n_rd=9280 n_rd_L2_A=0 n_write=0 n_wr_bk=28 bw_util=0.003448
n_activity=138415 dram_eff=0.1345
bk0: 604a 5399102i bk1: 600a 5399090i bk2: 576a 5399089i bk3: 576a 5399084i bk4: 572a 5399171i bk5: 576a 5399166i bk6: 576a 5399172i bk7: 576a 5399179i bk8: 584a 5399142i bk9: 584a 5399134i bk10: 576a 5399167i bk11: 576a 5399161i bk12: 576a 5399168i bk13: 576a 5399179i bk14: 576a 5399172i bk15: 576a 5399184i 

------------------------------------------------------------------------

Row_Buffer_Locality = 0.971573
Row_Buffer_Locality_read = 0.971767
Row_Buffer_Locality_write = 0.714286
Bank_Level_Parallism = 1.003505
Bank_Level_Parallism_Col = 1.002299
Bank_Level_Parallism_Ready = 1.000107
write_to_read_ratio_blp_rw_average = 0.010641
GrpLevelPara = 1.001557 

BW Util details:
bwutil = 0.003448 
total_CMD = 5399693 
util_bw = 18616 
Wasted_Col = 4405 
Wasted_Row = 3935 
Idle = 5372737 

BW Util Bottlenecks: 
RCDc_limit = 4182 
RCDWRc_limit = 18 
WTRc_limit = 83 
RTWc_limit = 46 
CCDLc_limit = 120 
rwq = 0 
CCDLc_limit_alone = 112 
WTRc_limit_alone = 75 
RTWc_limit_alone = 46 

Commands details: 
total_CMD = 5399693 
n_nop = 5389873 
Read = 9280 
Write = 0 
L2_Alloc = 0 
L2_WB = 28 
n_act = 264 
n_pre = 248 
n_ref = 0 
n_req = 9287 
total_req = 9308 

Dual Bus Interface Util: 
issued_total_row = 512 
issued_total_col = 9308 
Row_Bus_Util =  0.000095 
CoL_Bus_Util = 0.001724 
Either_Row_CoL_Bus_Util = 0.001819 
Issued_on_Two_Bus_Simul_Util = 0.000000 
issued_two_Eff = 0.000000 
queue_avg = 0.000018 


dram_util_bins: 0 0 0 0 0 0 0 0 0 0
dram_eff_bins: 0 0 0 0 0 0 0 0 0 0
mrqq: max=1 avg=1.77788e-05
Memory Partition 6: 
Cache L2_bank_012:
MSHR contents

Cache L2_bank_013:
MSHR contents

In Dram Latency Queue (total = 0): 
DRAM[6]: 16 bks, busW=4 BL=8 CL=16, tRRD=8 tCCD=2, tRCD=16 tRAS=37 tRP=16 tRC=52
n_cmd=5399693 n_nop=5389871 n_act=265 n_pre=249 n_ref_event=0 n_req=9290 n_rd=9284 n_rd_L2_A=0 n_write=0 n_wr_bk=24 bw_util=0.003448
n_activity=138396 dram_eff=0.1345
bk0: 604a 5399097i bk1: 604a 5399030i bk2: 576a 5399083i bk3: 576a 5399092i bk4: 576a 5399178i bk5: 576a 5399181i bk6: 576a 5399183i bk7: 576a 5399172i bk8: 584a 5399149i bk9: 580a 5399145i bk10: 576a 5399158i bk11: 576a 5399181i bk12: 576a 5399188i bk13: 576a 5399182i bk14: 576a 5399182i bk15: 576a 5399185i 

------------------------------------------------------------------------

Row_Buffer_Locality = 0.971475
Row_Buffer_Locality_read = 0.971672
Row_Buffer_Locality_write = 0.666667
Bank_Level_Parallism = 1.001922
Bank_Level_Parallism_Col = 1.002306
Bank_Level_Parallism_Ready = 1.000000
write_to_read_ratio_blp_rw_average = 0.009408
GrpLevelPara = 1.001934 

BW Util details:
bwutil = 0.003448 
total_CMD = 5399693 
util_bw = 18616 
Wasted_Col = 4374 
Wasted_Row = 3979 
Idle = 5372724 

BW Util Bottlenecks: 
RCDc_limit = 4205 
RCDWRc_limit = 18 
WTRc_limit = 51 
RTWc_limit = 41 
CCDLc_limit = 76 
rwq = 0 
CCDLc_limit_alone = 72 
WTRc_limit_alone = 47 
RTWc_limit_alone = 41 

Commands details: 
total_CMD = 5399693 
n_nop = 5389871 
Read = 9284 
Write = 0 
L2_Alloc = 0 
L2_WB = 24 
n_act = 265 
n_pre = 249 
n_ref = 0 
n_req = 9290 
total_req = 9308 

Dual Bus Interface Util: 
issued_total_row = 514 
issued_total_col = 9308 
Row_Bus_Util =  0.000095 
CoL_Bus_Util = 0.001724 
Either_Row_CoL_Bus_Util = 0.001819 
Issued_on_Two_Bus_Simul_Util = 0.000000 
issued_two_Eff = 0.000000 
queue_avg = 0.000008 


dram_util_bins: 0 0 0 0 0 0 0 0 0 0
dram_eff_bins: 0 0 0 0 0 0 0 0 0 0
mrqq: max=2 avg=7.59302e-06
Memory Partition 7: 
Cache L2_bank_014:
MSHR contents

Cache L2_bank_015:
MSHR contents

In Dram Latency Queue (total = 0): 
DRAM[7]: 16 bks, busW=4 BL=8 CL=16, tRRD=8 tCCD=2, tRCD=16 tRAS=37 tRP=16 tRC=52
n_cmd=5399693 n_nop=5389867 n_act=265 n_pre=249 n_ref_event=0 n_req=9291 n_rd=9284 n_rd_L2_A=0 n_write=0 n_wr_bk=28 bw_util=0.003449
n_activity=138591 dram_eff=0.1344
bk0: 596a 5399107i bk1: 612a 5399069i bk2: 576a 5399100i bk3: 576a 5399050i bk4: 576a 5399165i bk5: 576a 5399173i bk6: 576a 5399176i bk7: 576a 5399182i bk8: 580a 5399158i bk9: 584a 5399152i bk10: 576a 5399147i bk11: 576a 5399169i bk12: 576a 5399172i bk13: 576a 5399168i bk14: 576a 5399187i bk15: 576a 5399198i 

------------------------------------------------------------------------

Row_Buffer_Locality = 0.971478
Row_Buffer_Locality_read = 0.971672
Row_Buffer_Locality_write = 0.714286
Bank_Level_Parallism = 1.006068
Bank_Level_Parallism_Col = 1.003050
Bank_Level_Parallism_Ready = 1.000107
write_to_read_ratio_blp_rw_average = 0.011195
GrpLevelPara = 1.003050 

BW Util details:
bwutil = 0.003449 
total_CMD = 5399693 
util_bw = 18624 
Wasted_Col = 4358 
Wasted_Row = 3923 
Idle = 5372788 

BW Util Bottlenecks: 
RCDc_limit = 4192 
RCDWRc_limit = 17 
WTRc_limit = 81 
RTWc_limit = 58 
CCDLc_limit = 66 
rwq = 0 
CCDLc_limit_alone = 66 
WTRc_limit_alone = 81 
RTWc_limit_alone = 58 

Commands details: 
total_CMD = 5399693 
n_nop = 5389867 
Read = 9284 
Write = 0 
L2_Alloc = 0 
L2_WB = 28 
n_act = 265 
n_pre = 249 
n_ref = 0 
n_req = 9291 
total_req = 9312 

Dual Bus Interface Util: 
issued_total_row = 514 
issued_total_col = 9312 
Row_Bus_Util =  0.000095 
CoL_Bus_Util = 0.001725 
Either_Row_CoL_Bus_Util = 0.001820 
Issued_on_Two_Bus_Simul_Util = 0.000000 
issued_two_Eff = 0.000000 
queue_avg = 0.000007 


dram_util_bins: 0 0 0 0 0 0 0 0 0 0
dram_eff_bins: 0 0 0 0 0 0 0 0 0 0
mrqq: max=1 avg=6.66705e-06

icnt_total_pkts_mem_to_simt=2096448
icnt_total_pkts_simt_to_mem=2096448
LD_mem_lat_dist  0 0 0 0 0 0 0 0 0 0 0 0 0 0 0 0 0 0 0 0 0 0 0 0 0 0 0
ST_mem_lat_dist  0 0 0 0 0 0 0 0 0 0 0 0 0 0 0 0 0 0 0 0 0 0 0 0 0 0 0


gpgpu_simulation_time = 0 days, 0 hrs, 21 min, 41 sec (1301 sec)
gpgpu_simulation_rate = 112824 (inst/sec)
gpgpu_simulation_rate = 1615 (cycle/sec)
gpgpu_silicon_slowdown = 916408x
GPGPU-Sim: synchronize waiting for inactive GPU simulation
GPGPU-Sim API: Stream Manager State
GPGPU-Sim: detected inactive GPU simulation thread
GPGPU-Sim PTX: Setting up arguments for 8 bytes starting at 0x7ffda5e26f38..
GPGPU-Sim PTX: Setting up arguments for 8 bytes starting at 0x7ffda5e26f30..
GPGPU-Sim PTX: Setting up arguments for 8 bytes starting at 0x7ffda5e26f28..
GPGPU-Sim PTX: Setting up arguments for 4 bytes starting at 0x7ffda5e26f24..

GPGPU-Sim PTX: cudaLaunch for 0x0x558539f13ec5 (mode=performance simulation) on stream 0
GPGPU-Sim PTX: finding reconvergence points for '_Z17fdtd_step2_kernelPfS_S_i'...
GPGPU-Sim PTX: Finding dominators for '_Z17fdtd_step2_kernelPfS_S_i'...
GPGPU-Sim PTX: Finding immediate dominators for '_Z17fdtd_step2_kernelPfS_S_i'...
GPGPU-Sim PTX: Finding postdominators for '_Z17fdtd_step2_kernelPfS_S_i'...
GPGPU-Sim PTX: Finding immediate postdominators for '_Z17fdtd_step2_kernelPfS_S_i'...
GPGPU-Sim PTX: pre-decoding instructions for '_Z17fdtd_step2_kernelPfS_S_i'...
GPGPU-Sim PTX: reconvergence points for _Z17fdtd_step2_kernelPfS_S_i...
GPGPU-Sim PTX:  1 (potential) branch divergence @  PC=0x1d8 (fdtd2d.1.sm_52.ptx:111) @!%p5 bra BB1_2;
GPGPU-Sim PTX:    immediate post dominator      @  PC=0x278 (fdtd2d.1.sm_52.ptx:135) ret;
GPGPU-Sim PTX:  2 (potential) branch divergence @  PC=0x1e0 (fdtd2d.1.sm_52.ptx:112) bra.uni BB1_1;
GPGPU-Sim PTX:    immediate post dominator      @  PC=0x1e8 (fdtd2d.1.sm_52.ptx:115) cvta.to.global.u64 %rd3, %rd2;
GPGPU-Sim PTX: ... end of reconvergence points for _Z17fdtd_step2_kernelPfS_S_i
GPGPU-Sim PTX: ... done pre-decoding instructions for '_Z17fdtd_step2_kernelPfS_S_i'.
GPGPU-Sim PTX: pushing kernel '_Z17fdtd_step2_kernelPfS_S_i' to stream 0, gridDim= (64,256,1) blockDim = (32,8,1) 
GPGPU-Sim uArch: Shader 6 bind to kernel 2 '_Z17fdtd_step2_kernelPfS_S_i'
GPGPU-Sim uArch: CTA/core = 8, limited by: threads
GPGPU-Sim uArch: Shader 7 bind to kernel 2 '_Z17fdtd_step2_kernelPfS_S_i'
GPGPU-Sim uArch: Shader 8 bind to kernel 2 '_Z17fdtd_step2_kernelPfS_S_i'
GPGPU-Sim uArch: Shader 9 bind to kernel 2 '_Z17fdtd_step2_kernelPfS_S_i'
GPGPU-Sim uArch: Shader 10 bind to kernel 2 '_Z17fdtd_step2_kernelPfS_S_i'
GPGPU-Sim uArch: Shader 11 bind to kernel 2 '_Z17fdtd_step2_kernelPfS_S_i'
GPGPU-Sim uArch: Shader 12 bind to kernel 2 '_Z17fdtd_step2_kernelPfS_S_i'
GPGPU-Sim uArch: Shader 13 bind to kernel 2 '_Z17fdtd_step2_kernelPfS_S_i'
GPGPU-Sim uArch: Shader 0 bind to kernel 2 '_Z17fdtd_step2_kernelPfS_S_i'
GPGPU-Sim uArch: Shader 1 bind to kernel 2 '_Z17fdtd_step2_kernelPfS_S_i'
GPGPU-Sim uArch: Shader 2 bind to kernel 2 '_Z17fdtd_step2_kernelPfS_S_i'
GPGPU-Sim uArch: Shader 3 bind to kernel 2 '_Z17fdtd_step2_kernelPfS_S_i'
GPGPU-Sim uArch: Shader 4 bind to kernel 2 '_Z17fdtd_step2_kernelPfS_S_i'
GPGPU-Sim uArch: Shader 5 bind to kernel 2 '_Z17fdtd_step2_kernelPfS_S_i'
Destroy streams for kernel 2: size 0
kernel_name = _Z17fdtd_step2_kernelPfS_S_i 
kernel_launch_uid = 2 
gpu_sim_cycle = 2460699
gpu_sim_insn = 146763776
gpu_ipc =      59.6431
gpu_tot_sim_cycle = 4562632
gpu_tot_sim_insn = 293548032
gpu_tot_ipc =      64.3374
gpu_tot_issued_cta = 32768
gpu_occupancy = 88.6139% 
gpu_tot_occupancy = 78.8876% 
max_total_param_size = 0
gpu_stall_dramfull = 0
gpu_stall_icnt2sh    = 0
partiton_level_parallism =       0.9977
partiton_level_parallism_total  =       0.9976
partiton_level_parallism_util =       1.0000
partiton_level_parallism_util_total  =       1.0000
L2_BW  =      47.2511 GB/Sec
L2_BW_total  =      47.2443 GB/Sec
gpu_total_sim_rate=100702
gpgpu_n_tot_thrd_icount = 306165760
gpgpu_n_tot_w_icount = 9567680
gpgpu_n_stall_shd_mem = 61861199
gpgpu_n_mem_read_local = 0
gpgpu_n_mem_write_local = 0
gpgpu_n_mem_read_global = 3388480
gpgpu_n_mem_write_global = 1163008
gpgpu_n_mem_texture = 0
gpgpu_n_mem_const = 0
gpgpu_n_load_insn  = 25155584
gpgpu_n_store_insn = 8386560
gpgpu_n_shmem_insn = 0
gpgpu_n_sstarr_insn = 0
gpgpu_n_tex_insn = 0
gpgpu_n_const_mem_insn = 0
gpgpu_n_param_mem_insn = 25165824
gpgpu_n_shmem_bkconflict = 0
gpgpu_n_cache_bkconflict = 0
gpgpu_n_intrawarp_mshr_merge = 0
gpgpu_n_cmem_portconflict = 0
gpgpu_stall_shd_mem[c_mem][resource_stall] = 0
gpgpu_stall_shd_mem[s_mem][bk_conf] = 0
gpgpu_stall_shd_mem[gl_mem][resource_stall] = 0
gpgpu_stall_shd_mem[gl_mem][coal_stall] = 3503040
gpgpu_stall_shd_mem[gl_mem][data_port_stall] = 0
gpu_reg_bank_conflict_stalls = 0
Warp Occupancy Distribution:
Stall:244864897	
W0_Idle:146229	
W0_Scoreboard:542471	
W1:0	W2:0	W3:0	W4:0	W5:0	W6:0	W7:0	W8:0	W9:0	W10:0	W11:0	W12:0	W13:0	W14:0	W15:0	W16:0	W17:0	W18:0	W19:0	W20:0	W21:0	W22:0	W23:0	W24:0	W25:0	W26:0	W27:0	W28:0	W29:0	W30:0	
W31:38912	
W32:9528768
single_issue_nums: WS0:2270350	WS1:2270796	WS2:2270894	WS3:2271062	
dual_issue_nums: WS0:60569	WS1:60634	WS2:60585	WS3:60501	
traffic_breakdown_coretomem[GLOBAL_ACC_R] = 27107840 {8:3388480,}
traffic_breakdown_coretomem[GLOBAL_ACC_W] = 46520320 {40:1163008,}
traffic_breakdown_memtocore[GLOBAL_ACC_R] = 135539200 {40:3388480,}
traffic_breakdown_memtocore[GLOBAL_ACC_W] = 9304064 {8:1163008,}
Memory Partition 0: 
Cache L2_bank_000:
MSHR contents

Cache L2_bank_001:
MSHR contents

In Dram Latency Queue (total = 0): 
DRAM[0]: 16 bks, busW=4 BL=8 CL=16, tRRD=8 tCCD=2, tRCD=16 tRAS=37 tRP=16 tRC=52
n_cmd=11721027 n_nop=11503064 n_act=33691 n_pre=33675 n_ref_event=0 n_req=101693 n_rd=85325 n_rd_L2_A=0 n_write=0 n_wr_bk=65472 bw_util=0.02573
n_activity=2280384 dram_eff=0.1323
bk0: 5373a 11616581i bk1: 5340a 11619995i bk2: 5376a 11616525i bk3: 5312a 11621619i bk4: 5292a 11614419i bk5: 5204a 11617652i bk6: 5356a 11611281i bk7: 5324a 11613261i bk8: 5304a 11612706i bk9: 5292a 11614798i bk10: 5416a 11612401i bk11: 5368a 11613701i bk12: 5328a 11618227i bk13: 5256a 11620884i bk14: 5392a 11620298i bk15: 5392a 11618551i 

------------------------------------------------------------------------

Row_Buffer_Locality = 0.668699
Row_Buffer_Locality_read = 0.777849
Row_Buffer_Locality_write = 0.099707
Bank_Level_Parallism = 1.186281
Bank_Level_Parallism_Col = 1.097711
Bank_Level_Parallism_Ready = 1.009999
write_to_read_ratio_blp_rw_average = 0.448026
GrpLevelPara = 1.083201 

BW Util details:
bwutil = 0.025731 
total_CMD = 11721027 
util_bw = 301594 
Wasted_Col = 589963 
Wasted_Row = 636559 
Idle = 10192911 

BW Util Bottlenecks: 
RCDc_limit = 290228 
RCDWRc_limit = 123878 
WTRc_limit = 76852 
RTWc_limit = 61184 
CCDLc_limit = 123936 
rwq = 0 
CCDLc_limit_alone = 117822 
WTRc_limit_alone = 72726 
RTWc_limit_alone = 59196 

Commands details: 
total_CMD = 11721027 
n_nop = 11503064 
Read = 85325 
Write = 0 
L2_Alloc = 0 
L2_WB = 65472 
n_act = 33691 
n_pre = 33675 
n_ref = 0 
n_req = 101693 
total_req = 150797 

Dual Bus Interface Util: 
issued_total_row = 67366 
issued_total_col = 150797 
Row_Bus_Util =  0.005747 
CoL_Bus_Util = 0.012866 
Either_Row_CoL_Bus_Util = 0.018596 
Issued_on_Two_Bus_Simul_Util = 0.000017 
issued_two_Eff = 0.000918 
queue_avg = 0.064166 


dram_util_bins: 0 0 0 0 0 0 0 0 0 0
dram_eff_bins: 0 0 0 0 0 0 0 0 0 0
mrqq: max=10 avg=0.0641656
Memory Partition 1: 
Cache L2_bank_002:
MSHR contents

Cache L2_bank_003:
MSHR contents

In Dram Latency Queue (total = 0): 
DRAM[1]: 16 bks, busW=4 BL=8 CL=16, tRRD=8 tCCD=2, tRCD=16 tRAS=37 tRP=16 tRC=52
n_cmd=11721027 n_nop=11503830 n_act=33580 n_pre=33564 n_ref_event=0 n_req=101120 n_rd=84752 n_rd_L2_A=0 n_write=0 n_wr_bk=65472 bw_util=0.02563
n_activity=2268401 dram_eff=0.1324
bk0: 5304a 11617389i bk1: 5320a 11620885i bk2: 5292a 11616278i bk3: 5364a 11619381i bk4: 5188a 11616157i bk5: 5200a 11617917i bk6: 5364a 11610050i bk7: 5296a 11612400i bk8: 5264a 11613169i bk9: 5284a 11613922i bk10: 5344a 11612815i bk11: 5300a 11613695i bk12: 5260a 11619917i bk13: 5292a 11618211i bk14: 5348a 11619868i bk15: 5332a 11619668i 

------------------------------------------------------------------------

Row_Buffer_Locality = 0.667919
Row_Buffer_Locality_read = 0.777433
Row_Buffer_Locality_write = 0.100868
Bank_Level_Parallism = 1.188101
Bank_Level_Parallism_Col = 1.101102
Bank_Level_Parallism_Ready = 1.010515
write_to_read_ratio_blp_rw_average = 0.447194
GrpLevelPara = 1.086412 

BW Util details:
bwutil = 0.025633 
total_CMD = 11721027 
util_bw = 300448 
Wasted_Col = 589198 
Wasted_Row = 636183 
Idle = 10195198 

BW Util Bottlenecks: 
RCDc_limit = 288150 
RCDWRc_limit = 124008 
WTRc_limit = 80325 
RTWc_limit = 60977 
CCDLc_limit = 123959 
rwq = 0 
CCDLc_limit_alone = 117659 
WTRc_limit_alone = 76117 
RTWc_limit_alone = 58885 

Commands details: 
total_CMD = 11721027 
n_nop = 11503830 
Read = 84752 
Write = 0 
L2_Alloc = 0 
L2_WB = 65472 
n_act = 33580 
n_pre = 33564 
n_ref = 0 
n_req = 101120 
total_req = 150224 

Dual Bus Interface Util: 
issued_total_row = 67144 
issued_total_col = 150224 
Row_Bus_Util =  0.005729 
CoL_Bus_Util = 0.012817 
Either_Row_CoL_Bus_Util = 0.018531 
Issued_on_Two_Bus_Simul_Util = 0.000015 
issued_two_Eff = 0.000787 
queue_avg = 0.064131 


dram_util_bins: 0 0 0 0 0 0 0 0 0 0
dram_eff_bins: 0 0 0 0 0 0 0 0 0 0
mrqq: max=8 avg=0.0641309
Memory Partition 2: 
Cache L2_bank_004:
MSHR contents

Cache L2_bank_005:
MSHR contents

In Dram Latency Queue (total = 0): 
DRAM[2]: 16 bks, busW=4 BL=8 CL=16, tRRD=8 tCCD=2, tRCD=16 tRAS=37 tRP=16 tRC=52
n_cmd=11721027 n_nop=11502930 n_act=33890 n_pre=33874 n_ref_event=0 n_req=101392 n_rd=85024 n_rd_L2_A=0 n_write=0 n_wr_bk=65472 bw_util=0.02568
n_activity=2283282 dram_eff=0.1318
bk0: 5328a 11616764i bk1: 5288a 11619533i bk2: 5368a 11615253i bk3: 5332a 11620362i bk4: 5244a 11614543i bk5: 5248a 11615183i bk6: 5388a 11608966i bk7: 5372a 11611459i bk8: 5288a 11612319i bk9: 5304a 11611457i bk10: 5316a 11613262i bk11: 5336a 11612993i bk12: 5300a 11619684i bk13: 5232a 11619479i bk14: 5344a 11620273i bk15: 5336a 11618940i 

------------------------------------------------------------------------

Row_Buffer_Locality = 0.665753
Row_Buffer_Locality_read = 0.773911
Row_Buffer_Locality_write = 0.103922
Bank_Level_Parallism = 1.186466
Bank_Level_Parallism_Col = 1.099545
Bank_Level_Parallism_Ready = 1.010727
write_to_read_ratio_blp_rw_average = 0.446446
GrpLevelPara = 1.085071 

BW Util details:
bwutil = 0.025680 
total_CMD = 11721027 
util_bw = 300992 
Wasted_Col = 594207 
Wasted_Row = 642236 
Idle = 10183592 

BW Util Bottlenecks: 
RCDc_limit = 294391 
RCDWRc_limit = 123434 
WTRc_limit = 78958 
RTWc_limit = 61937 
CCDLc_limit = 123433 
rwq = 0 
CCDLc_limit_alone = 117348 
WTRc_limit_alone = 74962 
RTWc_limit_alone = 59848 

Commands details: 
total_CMD = 11721027 
n_nop = 11502930 
Read = 85024 
Write = 0 
L2_Alloc = 0 
L2_WB = 65472 
n_act = 33890 
n_pre = 33874 
n_ref = 0 
n_req = 101392 
total_req = 150496 

Dual Bus Interface Util: 
issued_total_row = 67764 
issued_total_col = 150496 
Row_Bus_Util =  0.005781 
CoL_Bus_Util = 0.012840 
Either_Row_CoL_Bus_Util = 0.018607 
Issued_on_Two_Bus_Simul_Util = 0.000014 
issued_two_Eff = 0.000747 
queue_avg = 0.064913 


dram_util_bins: 0 0 0 0 0 0 0 0 0 0
dram_eff_bins: 0 0 0 0 0 0 0 0 0 0
mrqq: max=8 avg=0.0649131
Memory Partition 3: 
Cache L2_bank_006:
MSHR contents

Cache L2_bank_007:
MSHR contents

In Dram Latency Queue (total = 0): 
DRAM[3]: 16 bks, busW=4 BL=8 CL=16, tRRD=8 tCCD=2, tRCD=16 tRAS=37 tRP=16 tRC=52
n_cmd=11721027 n_nop=11501274 n_act=34347 n_pre=34331 n_ref_event=0 n_req=102137 n_rd=85768 n_rd_L2_A=0 n_write=0 n_wr_bk=65476 bw_util=0.02581
n_activity=2297794 dram_eff=0.1316
bk0: 5404a 11615338i bk1: 5408a 11617503i bk2: 5388a 11616242i bk3: 5416a 11619573i bk4: 5268a 11612666i bk5: 5212a 11618131i bk6: 5408a 11607943i bk7: 5384a 11609781i bk8: 5340a 11609729i bk9: 5372a 11610811i bk10: 5376a 11611652i bk11: 5388a 11610365i bk12: 5308a 11619558i bk13: 5320a 11618864i bk14: 5372a 11617688i bk15: 5404a 11616549i 

------------------------------------------------------------------------

Row_Buffer_Locality = 0.663716
Row_Buffer_Locality_read = 0.770672
Row_Buffer_Locality_write = 0.103305
Bank_Level_Parallism = 1.192023
Bank_Level_Parallism_Col = 1.102249
Bank_Level_Parallism_Ready = 1.010764
write_to_read_ratio_blp_rw_average = 0.443014
GrpLevelPara = 1.088080 

BW Util details:
bwutil = 0.025807 
total_CMD = 11721027 
util_bw = 302488 
Wasted_Col = 599297 
Wasted_Row = 644432 
Idle = 10174810 

BW Util Bottlenecks: 
RCDc_limit = 300838 
RCDWRc_limit = 123215 
WTRc_limit = 79655 
RTWc_limit = 62861 
CCDLc_limit = 123528 
rwq = 0 
CCDLc_limit_alone = 117482 
WTRc_limit_alone = 75551 
RTWc_limit_alone = 60919 

Commands details: 
total_CMD = 11721027 
n_nop = 11501274 
Read = 85768 
Write = 0 
L2_Alloc = 0 
L2_WB = 65476 
n_act = 34347 
n_pre = 34331 
n_ref = 0 
n_req = 102137 
total_req = 151244 

Dual Bus Interface Util: 
issued_total_row = 68678 
issued_total_col = 151244 
Row_Bus_Util =  0.005859 
CoL_Bus_Util = 0.012904 
Either_Row_CoL_Bus_Util = 0.018749 
Issued_on_Two_Bus_Simul_Util = 0.000014 
issued_two_Eff = 0.000769 
queue_avg = 0.066000 


dram_util_bins: 0 0 0 0 0 0 0 0 0 0
dram_eff_bins: 0 0 0 0 0 0 0 0 0 0
mrqq: max=9 avg=0.0659997
Memory Partition 4: 
Cache L2_bank_008:
MSHR contents

Cache L2_bank_009:
MSHR contents

In Dram Latency Queue (total = 0): 
DRAM[4]: 16 bks, busW=4 BL=8 CL=16, tRRD=8 tCCD=2, tRCD=16 tRAS=37 tRP=16 tRC=52
n_cmd=11721027 n_nop=11500822 n_act=34462 n_pre=34446 n_ref_event=0 n_req=102372 n_rd=86004 n_rd_L2_A=0 n_write=0 n_wr_bk=65472 bw_util=0.02585
n_activity=2300038 dram_eff=0.1317
bk0: 5416a 11615769i bk1: 5472a 11616419i bk2: 5400a 11615237i bk3: 5376a 11618878i bk4: 5248a 11613933i bk5: 5260a 11617894i bk6: 5392a 11605877i bk7: 5416a 11608356i bk8: 5376a 11612255i bk9: 5384a 11610106i bk10: 5392a 11611400i bk11: 5420a 11610726i bk12: 5304a 11618212i bk13: 5356a 11616002i bk14: 5412a 11616971i bk15: 5380a 11618632i 

------------------------------------------------------------------------

Row_Buffer_Locality = 0.663365
Row_Buffer_Locality_read = 0.769848
Row_Buffer_Locality_write = 0.103861
Bank_Level_Parallism = 1.192053
Bank_Level_Parallism_Col = 1.100087
Bank_Level_Parallism_Ready = 1.010366
write_to_read_ratio_blp_rw_average = 0.440861
GrpLevelPara = 1.087012 

BW Util details:
bwutil = 0.025847 
total_CMD = 11721027 
util_bw = 302952 
Wasted_Col = 602728 
Wasted_Row = 645171 
Idle = 10170176 

BW Util Bottlenecks: 
RCDc_limit = 302700 
RCDWRc_limit = 123377 
WTRc_limit = 80231 
RTWc_limit = 62987 
CCDLc_limit = 123684 
rwq = 0 
CCDLc_limit_alone = 117942 
WTRc_limit_alone = 76462 
RTWc_limit_alone = 61014 

Commands details: 
total_CMD = 11721027 
n_nop = 11500822 
Read = 86004 
Write = 0 
L2_Alloc = 0 
L2_WB = 65472 
n_act = 34462 
n_pre = 34446 
n_ref = 0 
n_req = 102372 
total_req = 151476 

Dual Bus Interface Util: 
issued_total_row = 68908 
issued_total_col = 151476 
Row_Bus_Util =  0.005879 
CoL_Bus_Util = 0.012923 
Either_Row_CoL_Bus_Util = 0.018787 
Issued_on_Two_Bus_Simul_Util = 0.000015 
issued_two_Eff = 0.000813 
queue_avg = 0.067641 


dram_util_bins: 0 0 0 0 0 0 0 0 0 0
dram_eff_bins: 0 0 0 0 0 0 0 0 0 0
mrqq: max=9 avg=0.0676413
Memory Partition 5: 
Cache L2_bank_010:
MSHR contents

Cache L2_bank_011:
MSHR contents

In Dram Latency Queue (total = 0): 
DRAM[5]: 16 bks, busW=4 BL=8 CL=16, tRRD=8 tCCD=2, tRCD=16 tRAS=37 tRP=16 tRC=52
n_cmd=11721027 n_nop=11499267 n_act=34954 n_pre=34938 n_ref_event=0 n_req=102960 n_rd=86592 n_rd_L2_A=0 n_write=0 n_wr_bk=65472 bw_util=0.02595
n_activity=2318931 dram_eff=0.1312
bk0: 5452a 11613953i bk1: 5428a 11616678i bk2: 5396a 11614719i bk3: 5364a 11618016i bk4: 5276a 11614681i bk5: 5296a 11616381i bk6: 5456a 11606621i bk7: 5480a 11609010i bk8: 5380a 11610731i bk9: 5432a 11609672i bk10: 5468a 11607579i bk11: 5500a 11607438i bk12: 5344a 11617696i bk13: 5328a 11617614i bk14: 5492a 11616795i bk15: 5500a 11614316i 

------------------------------------------------------------------------

Row_Buffer_Locality = 0.660509
Row_Buffer_Locality_read = 0.766018
Row_Buffer_Locality_write = 0.102334
Bank_Level_Parallism = 1.197350
Bank_Level_Parallism_Col = 1.101643
Bank_Level_Parallism_Ready = 1.010108
write_to_read_ratio_blp_rw_average = 0.438544
GrpLevelPara = 1.088059 

BW Util details:
bwutil = 0.025947 
total_CMD = 11721027 
util_bw = 304128 
Wasted_Col = 607776 
Wasted_Row = 645535 
Idle = 10163588 

BW Util Bottlenecks: 
RCDc_limit = 309566 
RCDWRc_limit = 123484 
WTRc_limit = 80448 
RTWc_limit = 63184 
CCDLc_limit = 123242 
rwq = 0 
CCDLc_limit_alone = 117559 
WTRc_limit_alone = 76719 
RTWc_limit_alone = 61230 

Commands details: 
total_CMD = 11721027 
n_nop = 11499267 
Read = 86592 
Write = 0 
L2_Alloc = 0 
L2_WB = 65472 
n_act = 34954 
n_pre = 34938 
n_ref = 0 
n_req = 102960 
total_req = 152064 

Dual Bus Interface Util: 
issued_total_row = 69892 
issued_total_col = 152064 
Row_Bus_Util =  0.005963 
CoL_Bus_Util = 0.012974 
Either_Row_CoL_Bus_Util = 0.018920 
Issued_on_Two_Bus_Simul_Util = 0.000017 
issued_two_Eff = 0.000884 
queue_avg = 0.066580 


dram_util_bins: 0 0 0 0 0 0 0 0 0 0
dram_eff_bins: 0 0 0 0 0 0 0 0 0 0
mrqq: max=8 avg=0.0665798
Memory Partition 6: 
Cache L2_bank_012:
MSHR contents

Cache L2_bank_013:
MSHR contents

In Dram Latency Queue (total = 0): 
DRAM[6]: 16 bks, busW=4 BL=8 CL=16, tRRD=8 tCCD=2, tRCD=16 tRAS=37 tRP=16 tRC=52
n_cmd=11721027 n_nop=11498613 n_act=35065 n_pre=35049 n_ref_event=0 n_req=103392 n_rd=87024 n_rd_L2_A=0 n_write=0 n_wr_bk=65472 bw_util=0.02602
n_activity=2323529 dram_eff=0.1313
bk0: 5452a 11614435i bk1: 5464a 11617934i bk2: 5484a 11614187i bk3: 5448a 11617671i bk4: 5324a 11611843i bk5: 5328a 11614629i bk6: 5492a 11604530i bk7: 5496a 11606431i bk8: 5384a 11610222i bk9: 5384a 11611287i bk10: 5452a 11609417i bk11: 5544a 11606380i bk12: 5396a 11616715i bk13: 5408a 11615486i bk14: 5524a 11614161i bk15: 5444a 11615431i 

------------------------------------------------------------------------

Row_Buffer_Locality = 0.660854
Row_Buffer_Locality_read = 0.764961
Row_Buffer_Locality_write = 0.107344
Bank_Level_Parallism = 1.198945
Bank_Level_Parallism_Col = 1.103191
Bank_Level_Parallism_Ready = 1.010212
write_to_read_ratio_blp_rw_average = 0.436657
GrpLevelPara = 1.090237 

BW Util details:
bwutil = 0.026021 
total_CMD = 11721027 
util_bw = 304992 
Wasted_Col = 612297 
Wasted_Row = 647503 
Idle = 10156235 

BW Util Bottlenecks: 
RCDc_limit = 312763 
RCDWRc_limit = 122793 
WTRc_limit = 80707 
RTWc_limit = 65763 
CCDLc_limit = 123698 
rwq = 0 
CCDLc_limit_alone = 117989 
WTRc_limit_alone = 76921 
RTWc_limit_alone = 63840 

Commands details: 
total_CMD = 11721027 
n_nop = 11498613 
Read = 87024 
Write = 0 
L2_Alloc = 0 
L2_WB = 65472 
n_act = 35065 
n_pre = 35049 
n_ref = 0 
n_req = 103392 
total_req = 152496 

Dual Bus Interface Util: 
issued_total_row = 70114 
issued_total_col = 152496 
Row_Bus_Util =  0.005982 
CoL_Bus_Util = 0.013010 
Either_Row_CoL_Bus_Util = 0.018976 
Issued_on_Two_Bus_Simul_Util = 0.000017 
issued_two_Eff = 0.000881 
queue_avg = 0.069194 


dram_util_bins: 0 0 0 0 0 0 0 0 0 0
dram_eff_bins: 0 0 0 0 0 0 0 0 0 0
mrqq: max=9 avg=0.0691943
Memory Partition 7: 
Cache L2_bank_014:
MSHR contents

Cache L2_bank_015:
MSHR contents

In Dram Latency Queue (total = 0): 
DRAM[7]: 16 bks, busW=4 BL=8 CL=16, tRRD=8 tCCD=2, tRCD=16 tRAS=37 tRP=16 tRC=52
n_cmd=11721027 n_nop=11498100 n_act=35099 n_pre=35083 n_ref_event=0 n_req=103848 n_rd=87480 n_rd_L2_A=0 n_write=0 n_wr_bk=65472 bw_util=0.0261
n_activity=2330042 dram_eff=0.1313
bk0: 5472a 11613688i bk1: 5524a 11615822i bk2: 5440a 11616712i bk3: 5532a 11617258i bk4: 5372a 11610587i bk5: 5404a 11613368i bk6: 5532a 11605021i bk7: 5508a 11607099i bk8: 5432a 11608486i bk9: 5408a 11611861i bk10: 5480a 11607688i bk11: 5528a 11608558i bk12: 5416a 11617912i bk13: 5424a 11617221i bk14: 5512a 11613066i bk15: 5496a 11615623i 

------------------------------------------------------------------------

Row_Buffer_Locality = 0.662016
Row_Buffer_Locality_read = 0.765169
Row_Buffer_Locality_write = 0.110704
Bank_Level_Parallism = 1.200840
Bank_Level_Parallism_Col = 1.103908
Bank_Level_Parallism_Ready = 1.009966
write_to_read_ratio_blp_rw_average = 0.436344
GrpLevelPara = 1.090964 

BW Util details:
bwutil = 0.026099 
total_CMD = 11721027 
util_bw = 305904 
Wasted_Col = 614023 
Wasted_Row = 643964 
Idle = 10157136 

BW Util Bottlenecks: 
RCDc_limit = 314202 
RCDWRc_limit = 122096 
WTRc_limit = 82244 
RTWc_limit = 66855 
CCDLc_limit = 123299 
rwq = 0 
CCDLc_limit_alone = 117652 
WTRc_limit_alone = 78632 
RTWc_limit_alone = 64820 

Commands details: 
total_CMD = 11721027 
n_nop = 11498100 
Read = 87480 
Write = 0 
L2_Alloc = 0 
L2_WB = 65472 
n_act = 35099 
n_pre = 35083 
n_ref = 0 
n_req = 103848 
total_req = 152952 

Dual Bus Interface Util: 
issued_total_row = 70182 
issued_total_col = 152952 
Row_Bus_Util =  0.005988 
CoL_Bus_Util = 0.013049 
Either_Row_CoL_Bus_Util = 0.019019 
Issued_on_Two_Bus_Simul_Util = 0.000018 
issued_two_Eff = 0.000929 
queue_avg = 0.068696 


dram_util_bins: 0 0 0 0 0 0 0 0 0 0
dram_eff_bins: 0 0 0 0 0 0 0 0 0 0
mrqq: max=8 avg=0.0686963

icnt_total_pkts_mem_to_simt=4551488
icnt_total_pkts_simt_to_mem=4551488
LD_mem_lat_dist  0 0 0 0 0 0 0 0 0 0 0 0 0 0 0 0 0 0 0 0 0 0 0 0 0 0 0
ST_mem_lat_dist  0 0 0 0 0 0 0 0 0 0 0 0 0 0 0 0 0 0 0 0 0 0 0 0 0 0 0


gpgpu_simulation_time = 0 days, 0 hrs, 48 min, 35 sec (2915 sec)
gpgpu_simulation_rate = 100702 (inst/sec)
gpgpu_simulation_rate = 1565 (cycle/sec)
gpgpu_silicon_slowdown = 945686x
GPGPU-Sim: synchronize waiting for inactive GPU simulation
GPGPU-Sim API: Stream Manager State
GPGPU-Sim: detected inactive GPU simulation thread
GPGPU-Sim PTX: Setting up arguments for 8 bytes starting at 0x7ffda5e26f38..
GPGPU-Sim PTX: Setting up arguments for 8 bytes starting at 0x7ffda5e26f30..
GPGPU-Sim PTX: Setting up arguments for 8 bytes starting at 0x7ffda5e26f28..
GPGPU-Sim PTX: Setting up arguments for 4 bytes starting at 0x7ffda5e26f24..

GPGPU-Sim PTX: cudaLaunch for 0x0x558539f14062 (mode=performance simulation) on stream 0
GPGPU-Sim PTX: finding reconvergence points for '_Z17fdtd_step3_kernelPfS_S_i'...
GPGPU-Sim PTX: Finding dominators for '_Z17fdtd_step3_kernelPfS_S_i'...
GPGPU-Sim PTX: Finding immediate dominators for '_Z17fdtd_step3_kernelPfS_S_i'...
GPGPU-Sim PTX: Finding postdominators for '_Z17fdtd_step3_kernelPfS_S_i'...
GPGPU-Sim PTX: Finding immediate postdominators for '_Z17fdtd_step3_kernelPfS_S_i'...
GPGPU-Sim PTX: pre-decoding instructions for '_Z17fdtd_step3_kernelPfS_S_i'...
GPGPU-Sim PTX: reconvergence points for _Z17fdtd_step3_kernelPfS_S_i...
GPGPU-Sim PTX:  1 (potential) branch divergence @  PC=0x2f0 (fdtd2d.1.sm_52.ptx:166) @!%p3 bra BB2_2;
GPGPU-Sim PTX:    immediate post dominator      @  PC=0x3a8 (fdtd2d.1.sm_52.ptx:193) ret;
GPGPU-Sim PTX:  2 (potential) branch divergence @  PC=0x2f8 (fdtd2d.1.sm_52.ptx:167) bra.uni BB2_1;
GPGPU-Sim PTX:    immediate post dominator      @  PC=0x300 (fdtd2d.1.sm_52.ptx:170) cvta.to.global.u64 %rd4, %rd2;
GPGPU-Sim PTX: ... end of reconvergence points for _Z17fdtd_step3_kernelPfS_S_i
GPGPU-Sim PTX: ... done pre-decoding instructions for '_Z17fdtd_step3_kernelPfS_S_i'.
GPGPU-Sim PTX: pushing kernel '_Z17fdtd_step3_kernelPfS_S_i' to stream 0, gridDim= (64,256,1) blockDim = (32,8,1) 
GPGPU-Sim uArch: Shader 4 bind to kernel 3 '_Z17fdtd_step3_kernelPfS_S_i'
GPGPU-Sim uArch: CTA/core = 8, limited by: threads
GPGPU-Sim uArch: Shader 5 bind to kernel 3 '_Z17fdtd_step3_kernelPfS_S_i'
GPGPU-Sim uArch: Shader 6 bind to kernel 3 '_Z17fdtd_step3_kernelPfS_S_i'
GPGPU-Sim uArch: Shader 7 bind to kernel 3 '_Z17fdtd_step3_kernelPfS_S_i'
GPGPU-Sim uArch: Shader 8 bind to kernel 3 '_Z17fdtd_step3_kernelPfS_S_i'
GPGPU-Sim uArch: Shader 9 bind to kernel 3 '_Z17fdtd_step3_kernelPfS_S_i'
GPGPU-Sim uArch: Shader 10 bind to kernel 3 '_Z17fdtd_step3_kernelPfS_S_i'
GPGPU-Sim uArch: Shader 11 bind to kernel 3 '_Z17fdtd_step3_kernelPfS_S_i'
GPGPU-Sim uArch: Shader 12 bind to kernel 3 '_Z17fdtd_step3_kernelPfS_S_i'
GPGPU-Sim uArch: Shader 13 bind to kernel 3 '_Z17fdtd_step3_kernelPfS_S_i'
GPGPU-Sim uArch: Shader 0 bind to kernel 3 '_Z17fdtd_step3_kernelPfS_S_i'
GPGPU-Sim uArch: Shader 1 bind to kernel 3 '_Z17fdtd_step3_kernelPfS_S_i'
GPGPU-Sim uArch: Shader 2 bind to kernel 3 '_Z17fdtd_step3_kernelPfS_S_i'
GPGPU-Sim uArch: Shader 3 bind to kernel 3 '_Z17fdtd_step3_kernelPfS_S_i'
Destroy streams for kernel 3: size 0
kernel_name = _Z17fdtd_step3_kernelPfS_S_i 
kernel_launch_uid = 3 
gpu_sim_cycle = 3380719
gpu_sim_insn = 155189248
gpu_ipc =      45.9042
gpu_tot_sim_cycle = 7943351
gpu_tot_sim_insn = 448737280
gpu_tot_ipc =      56.4922
gpu_tot_issued_cta = 49152
gpu_occupancy = 90.3628% 
gpu_tot_occupancy = 83.7738% 
max_total_param_size = 0
gpu_stall_dramfull = 0
gpu_stall_icnt2sh    = 0
partiton_level_parallism =       0.9983
partiton_level_parallism_total  =       0.9979
partiton_level_parallism_util =       1.0000
partiton_level_parallism_util_total  =       1.0000
L2_BW  =      47.2813 GB/Sec
L2_BW_total  =      47.2601 GB/Sec
gpu_total_sim_rate=87935
gpgpu_n_tot_thrd_icount = 465549312
gpgpu_n_tot_w_icount = 14548416
gpgpu_n_stall_shd_mem = 107917218
gpgpu_n_mem_read_local = 0
gpgpu_n_mem_write_local = 0
gpgpu_n_mem_read_global = 6239296
gpgpu_n_mem_write_global = 1687296
gpgpu_n_mem_texture = 0
gpgpu_n_mem_const = 0
gpgpu_n_load_insn  = 46127104
gpgpu_n_store_insn = 12580864
gpgpu_n_shmem_insn = 0
gpgpu_n_sstarr_insn = 0
gpgpu_n_tex_insn = 0
gpgpu_n_const_mem_insn = 0
gpgpu_n_param_mem_insn = 37748736
gpgpu_n_shmem_bkconflict = 0
gpgpu_n_cache_bkconflict = 0
gpgpu_n_intrawarp_mshr_merge = 0
gpgpu_n_cmem_portconflict = 0
gpgpu_stall_shd_mem[c_mem][resource_stall] = 0
gpgpu_stall_shd_mem[s_mem][bk_conf] = 0
gpgpu_stall_shd_mem[gl_mem][resource_stall] = 0
gpgpu_stall_shd_mem[gl_mem][coal_stall] = 6091712
gpgpu_stall_shd_mem[gl_mem][data_port_stall] = 0
gpu_reg_bank_conflict_stalls = 0
Warp Occupancy Distribution:
Stall:428892550	
W0_Idle:185350	
W0_Scoreboard:756348	
W1:0	W2:0	W3:0	W4:0	W5:0	W6:0	W7:0	W8:0	W9:0	W10:0	W11:0	W12:0	W13:0	W14:0	W15:0	W16:0	W17:0	W18:0	W19:0	W20:0	W21:0	W22:0	W23:0	W24:0	W25:0	W26:0	W27:0	W28:0	W29:0	W30:0	
W31:38912	
W32:14509504
single_issue_nums: WS0:3388084	WS1:3388524	WS2:3388680	WS3:3388760	
dual_issue_nums: WS0:124294	WS1:124362	WS2:124284	WS3:124244	
traffic_breakdown_coretomem[GLOBAL_ACC_R] = 49914368 {8:6239296,}
traffic_breakdown_coretomem[GLOBAL_ACC_W] = 67491840 {40:1687296,}
traffic_breakdown_memtocore[GLOBAL_ACC_R] = 249571840 {40:6239296,}
traffic_breakdown_memtocore[GLOBAL_ACC_W] = 13498368 {8:1687296,}
Memory Partition 0: 
Cache L2_bank_000:
MSHR contents

Cache L2_bank_001:
MSHR contents

In Dram Latency Queue (total = 0): 
DRAM[0]: 16 bks, busW=4 BL=8 CL=16, tRRD=8 tCCD=2, tRCD=16 tRAS=37 tRP=16 tRC=52
n_cmd=20405818 n_nop=19789610 n_act=91358 n_pre=91342 n_ref_event=0 n_req=319462 n_rd=281229 n_rd_L2_A=0 n_write=0 n_wr_bk=152932 bw_util=0.04255
n_activity=6280497 dram_eff=0.1383
bk0: 17629a 20128845i bk1: 17596a 20133620i bk2: 17600a 20135168i bk3: 17536a 20138620i bk4: 17464a 20125833i bk5: 17384a 20127330i bk6: 17588a 20122346i bk7: 17556a 20125047i bk8: 17548a 20116939i bk9: 17536a 20118015i bk10: 17688a 20111445i bk11: 17640a 20116671i bk12: 17604a 20126175i bk13: 17532a 20129579i bk14: 17664a 20138999i bk15: 17664a 20138203i 

------------------------------------------------------------------------

Row_Buffer_Locality = 0.714025
Row_Buffer_Locality_read = 0.758933
Row_Buffer_Locality_write = 0.383700
Bank_Level_Parallism = 1.262601
Bank_Level_Parallism_Col = 1.152491
Bank_Level_Parallism_Ready = 1.020701
write_to_read_ratio_blp_rw_average = 0.351459
GrpLevelPara = 1.122563 

BW Util details:
bwutil = 0.042553 
total_CMD = 20405818 
util_bw = 868322 
Wasted_Col = 1682926 
Wasted_Row = 1351221 
Idle = 16503349 

BW Util Bottlenecks: 
RCDc_limit = 1017794 
RCDWRc_limit = 194156 
WTRc_limit = 384962 
RTWc_limit = 211777 
CCDLc_limit = 317449 
rwq = 0 
CCDLc_limit_alone = 278683 
WTRc_limit_alone = 358910 
RTWc_limit_alone = 199063 

Commands details: 
total_CMD = 20405818 
n_nop = 19789610 
Read = 281229 
Write = 0 
L2_Alloc = 0 
L2_WB = 152932 
n_act = 91358 
n_pre = 91342 
n_ref = 0 
n_req = 319462 
total_req = 434161 

Dual Bus Interface Util: 
issued_total_row = 182700 
issued_total_col = 434161 
Row_Bus_Util =  0.008953 
CoL_Bus_Util = 0.021276 
Either_Row_CoL_Bus_Util = 0.030198 
Issued_on_Two_Bus_Simul_Util = 0.000032 
issued_two_Eff = 0.001060 
queue_avg = 0.083886 


dram_util_bins: 0 0 0 0 0 0 0 0 0 0
dram_eff_bins: 0 0 0 0 0 0 0 0 0 0
mrqq: max=10 avg=0.0838856
Memory Partition 1: 
Cache L2_bank_002:
MSHR contents

Cache L2_bank_003:
MSHR contents

In Dram Latency Queue (total = 0): 
DRAM[1]: 16 bks, busW=4 BL=8 CL=16, tRRD=8 tCCD=2, tRCD=16 tRAS=37 tRP=16 tRC=52
n_cmd=20405818 n_nop=19790966 n_act=90956 n_pre=90940 n_ref_event=0 n_req=318873 n_rd=280640 n_rd_L2_A=0 n_write=0 n_wr_bk=152932 bw_util=0.04249
n_activity=6263013 dram_eff=0.1385
bk0: 17560a 20128481i bk1: 17576a 20133466i bk2: 17516a 20130916i bk3: 17580a 20137703i bk4: 17360a 20127884i bk5: 17372a 20132018i bk6: 17596a 20123056i bk7: 17528a 20128565i bk8: 17508a 20112773i bk9: 17528a 20114135i bk10: 17612a 20111820i bk11: 17576a 20118555i bk12: 17536a 20131213i bk13: 17568a 20129677i bk14: 17620a 20144055i bk15: 17604a 20139251i 

------------------------------------------------------------------------

Row_Buffer_Locality = 0.714758
Row_Buffer_Locality_read = 0.760056
Row_Buffer_Locality_write = 0.382261
Bank_Level_Parallism = 1.263504
Bank_Level_Parallism_Col = 1.153709
Bank_Level_Parallism_Ready = 1.020485
write_to_read_ratio_blp_rw_average = 0.352426
GrpLevelPara = 1.124318 

BW Util details:
bwutil = 0.042495 
total_CMD = 20405818 
util_bw = 867144 
Wasted_Col = 1678534 
Wasted_Row = 1344927 
Idle = 16515213 

BW Util Bottlenecks: 
RCDc_limit = 1010381 
RCDWRc_limit = 194727 
WTRc_limit = 390424 
RTWc_limit = 212121 
CCDLc_limit = 317224 
rwq = 0 
CCDLc_limit_alone = 278441 
WTRc_limit_alone = 364466 
RTWc_limit_alone = 199296 

Commands details: 
total_CMD = 20405818 
n_nop = 19790966 
Read = 280640 
Write = 0 
L2_Alloc = 0 
L2_WB = 152932 
n_act = 90956 
n_pre = 90940 
n_ref = 0 
n_req = 318873 
total_req = 433572 

Dual Bus Interface Util: 
issued_total_row = 181896 
issued_total_col = 433572 
Row_Bus_Util =  0.008914 
CoL_Bus_Util = 0.021247 
Either_Row_CoL_Bus_Util = 0.030131 
Issued_on_Two_Bus_Simul_Util = 0.000030 
issued_two_Eff = 0.001002 
queue_avg = 0.083424 


dram_util_bins: 0 0 0 0 0 0 0 0 0 0
dram_eff_bins: 0 0 0 0 0 0 0 0 0 0
mrqq: max=11 avg=0.0834238
Memory Partition 2: 
Cache L2_bank_004:
MSHR contents

Cache L2_bank_005:
MSHR contents

In Dram Latency Queue (total = 0): 
DRAM[2]: 16 bks, busW=4 BL=8 CL=16, tRRD=8 tCCD=2, tRCD=16 tRAS=37 tRP=16 tRC=52
n_cmd=20405818 n_nop=19789935 n_act=91350 n_pre=91334 n_ref_event=0 n_req=319144 n_rd=280912 n_rd_L2_A=0 n_write=0 n_wr_bk=152928 bw_util=0.04252
n_activity=6273983 dram_eff=0.1383
bk0: 17584a 20130187i bk1: 17544a 20131195i bk2: 17580a 20131696i bk3: 17552a 20139872i bk4: 17416a 20124948i bk5: 17420a 20127706i bk6: 17620a 20123253i bk7: 17604a 20125113i bk8: 17532a 20112012i bk9: 17548a 20110983i bk10: 17592a 20113403i bk11: 17612a 20114251i bk12: 17576a 20129717i bk13: 17508a 20130065i bk14: 17616a 20142575i bk15: 17608a 20141750i 

------------------------------------------------------------------------

Row_Buffer_Locality = 0.713766
Row_Buffer_Locality_read = 0.758472
Row_Buffer_Locality_write = 0.385279
Bank_Level_Parallism = 1.263126
Bank_Level_Parallism_Col = 1.153060
Bank_Level_Parallism_Ready = 1.020338
write_to_read_ratio_blp_rw_average = 0.351433
GrpLevelPara = 1.123217 

BW Util details:
bwutil = 0.042521 
total_CMD = 20405818 
util_bw = 867680 
Wasted_Col = 1683798 
Wasted_Row = 1351806 
Idle = 16502534 

BW Util Bottlenecks: 
RCDc_limit = 1018380 
RCDWRc_limit = 194104 
WTRc_limit = 389982 
RTWc_limit = 211080 
CCDLc_limit = 317251 
rwq = 0 
CCDLc_limit_alone = 278336 
WTRc_limit_alone = 364005 
RTWc_limit_alone = 198142 

Commands details: 
total_CMD = 20405818 
n_nop = 19789935 
Read = 280912 
Write = 0 
L2_Alloc = 0 
L2_WB = 152928 
n_act = 91350 
n_pre = 91334 
n_ref = 0 
n_req = 319144 
total_req = 433840 

Dual Bus Interface Util: 
issued_total_row = 182684 
issued_total_col = 433840 
Row_Bus_Util =  0.008953 
CoL_Bus_Util = 0.021261 
Either_Row_CoL_Bus_Util = 0.030182 
Issued_on_Two_Bus_Simul_Util = 0.000031 
issued_two_Eff = 0.001041 
queue_avg = 0.085118 


dram_util_bins: 0 0 0 0 0 0 0 0 0 0
dram_eff_bins: 0 0 0 0 0 0 0 0 0 0
mrqq: max=9 avg=0.0851177
Memory Partition 3: 
Cache L2_bank_006:
MSHR contents

Cache L2_bank_007:
MSHR contents

In Dram Latency Queue (total = 0): 
DRAM[3]: 16 bks, busW=4 BL=8 CL=16, tRRD=8 tCCD=2, tRCD=16 tRAS=37 tRP=16 tRC=52
n_cmd=20405818 n_nop=19788552 n_act=91661 n_pre=91645 n_ref_event=0 n_req=319868 n_rd=281640 n_rd_L2_A=0 n_write=0 n_wr_bk=152912 bw_util=0.04259
n_activity=6292408 dram_eff=0.1381
bk0: 17660a 20127483i bk1: 17668a 20131092i bk2: 17604a 20133451i bk3: 17628a 20139223i bk4: 17440a 20121294i bk5: 17384a 20128761i bk6: 17640a 20121989i bk7: 17616a 20124606i bk8: 17584a 20111612i bk9: 17616a 20111701i bk10: 17644a 20113786i bk11: 17656a 20114312i bk12: 17584a 20128457i bk13: 17596a 20129518i bk14: 17644a 20141259i bk15: 17676a 20136908i 

------------------------------------------------------------------------

Row_Buffer_Locality = 0.713441
Row_Buffer_Locality_read = 0.758202
Row_Buffer_Locality_write = 0.383672
Bank_Level_Parallism = 1.263084
Bank_Level_Parallism_Col = 1.152522
Bank_Level_Parallism_Ready = 1.020077
write_to_read_ratio_blp_rw_average = 0.351049
GrpLevelPara = 1.123311 

BW Util details:
[...]
Cache L2_bank_000:
MSHR contents

Cache L2_bank_001:
MSHR contents

In Dram Latency Queue (total = 0): 
DRAM[0]: 16 bks, busW=4 BL=8 CL=16, tRRD=8 tCCD=2, tRCD=16 tRAS=37 tRP=16 tRC=52
n_cmd=562678711 n_nop=540168091 n_act=3106914 n_pre=3106898 n_ref_event=0 n_req=12286468 n_rd=10942864 n_rd_L2_A=0 n_write=0 n_wr_bk=5374416 bw_util=0.058
n_activity=229116283 dram_eff=0.1424
bk0: 681904a 553086788i bk1: 682212a 553174665i bk2: 686304a 553169808i bk3: 686384a 553284712i bk4: 678724a 552988253i bk5: 678736a 553086167i bk6: 687336a 552842102i bk7: 687496a 552926622i bk8: 681260a 552653646i bk9: 681676a 552668248i bk10: 687340a 552610600i bk11: 687172a 552618582i bk12: 681228a 553083380i bk13: 681508a 553092295i bk14: 686544a 553363943i bk15: 687040a 553385409i 

------------------------------------------------------------------------

Row_Buffer_Locality = 0.747127
Row_Buffer_Locality_read = 0.788021
Row_Buffer_Locality_write = 0.414071
Bank_Level_Parallism = 1.262331
Bank_Level_Parallism_Col = 1.159103
Bank_Level_Parallism_Ready = 1.023198
write_to_read_ratio_blp_rw_average = 0.349006
GrpLevelPara = 1.126975 

BW Util details:
bwutil = 0.057999 
total_CMD = 562678711 
util_bw = 32634560 
Wasted_Col = 59664993 
Wasted_Row = 45212044 
Idle = 425167114 

BW Util Bottlenecks: 
RCDc_limit = 34794077 
RCDWRc_limit = 6486329 
WTRc_limit = 14854570 
RTWc_limit = 8275074 
CCDLc_limit = 11304755 
rwq = 0 
CCDLc_limit_alone = 9809957 
WTRc_limit_alone = 13873348 
RTWc_limit_alone = 7761498 

Commands details: 
total_CMD = 562678711 
n_nop = 540168091 
Read = 10942864 
Write = 0 
L2_Alloc = 0 
L2_WB = 5374416 
n_act = 3106914 
n_pre = 3106898 
n_ref = 0 
n_req = 12286468 
total_req = 16317280 

Dual Bus Interface Util: 
issued_total_row = 6213812 
issued_total_col = 16317280 
Row_Bus_Util =  0.011043 
CoL_Bus_Util = 0.028999 
Either_Row_CoL_Bus_Util = 0.040006 
Issued_on_Two_Bus_Simul_Util = 0.000036 
issued_two_Eff = 0.000909 
queue_avg = 0.102090 


dram_util_bins: 0 0 0 0 0 0 0 0 0 0
dram_eff_bins: 0 0 0 0 0 0 0 0 0 0
mrqq: max=14 avg=0.10209
Memory Partition 1: 
Cache L2_bank_002:
MSHR contents

Cache L2_bank_003:
MSHR contents

In Dram Latency Queue (total = 0): 
DRAM[1]: 16 bks, busW=4 BL=8 CL=16, tRRD=8 tCCD=2, tRCD=16 tRAS=37 tRP=16 tRC=52
n_cmd=562678711 n_nop=540153724 n_act=3111551 n_pre=3111535 n_ref_event=0 n_req=12291684 n_rd=10948088 n_rd_L2_A=0 n_write=0 n_wr_bk=5374384 bw_util=0.05802
n_activity=229311175 dram_eff=0.1424
bk0: 682236a 553075285i bk1: 682508a 553159552i bk2: 686420a 553172122i bk3: 686868a 553252859i bk4: 678844a 552953884i bk5: 679240a 553054906i bk6: 688144a 552824907i bk7: 688108a 552893686i bk8: 681800a 552617922i bk9: 681996a 552637362i bk10: 687320a 552628744i bk11: 687628a 552608396i bk12: 681616a 553073308i bk13: 682124a 553092522i bk14: 686656a 553352577i bk15: 686580a 553395638i 

------------------------------------------------------------------------

Row_Buffer_Locality = 0.746857
Row_Buffer_Locality_read = 0.787744
Row_Buffer_Locality_write = 0.413700
Bank_Level_Parallism = 1.262529
Bank_Level_Parallism_Col = 1.159113
Bank_Level_Parallism_Ready = 1.023197
write_to_read_ratio_blp_rw_average = 0.349015
GrpLevelPara = 1.127031 

BW Util details:
bwutil = 0.058017 
total_CMD = 562678711 
util_bw = 32644944 
Wasted_Col = 59757029 
Wasted_Row = 45282846 
Idle = 424993892 

BW Util Bottlenecks: 
RCDc_limit = 34858861 
RCDWRc_limit = 6488627 
WTRc_limit = 14844811 
RTWc_limit = 8307122 
CCDLc_limit = 11307932 
rwq = 0 
CCDLc_limit_alone = 9811492 
WTRc_limit_alone = 13864427 
RTWc_limit_alone = 7791066 

Commands details: 
total_CMD = 562678711 
n_nop = 540153724 
Read = 10948088 
Write = 0 
L2_Alloc = 0 
L2_WB = 5374384 
n_act = 3111551 
n_pre = 3111535 
n_ref = 0 
n_req = 12291684 
total_req = 16322472 

Dual Bus Interface Util: 
issued_total_row = 6223086 
issued_total_col = 16322472 
Row_Bus_Util =  0.011060 
CoL_Bus_Util = 0.029009 
Either_Row_CoL_Bus_Util = 0.040032 
Issued_on_Two_Bus_Simul_Util = 0.000037 
issued_two_Eff = 0.000913 
queue_avg = 0.102455 


dram_util_bins: 0 0 0 0 0 0 0 0 0 0
dram_eff_bins: 0 0 0 0 0 0 0 0 0 0
mrqq: max=15 avg=0.102455
Memory Partition 2: 
Cache L2_bank_004:
MSHR contents

Cache L2_bank_005:
MSHR contents

In Dram Latency Queue (total = 0): 
DRAM[2]: 16 bks, busW=4 BL=8 CL=16, tRRD=8 tCCD=2, tRCD=16 tRAS=37 tRP=16 tRC=52
n_cmd=562678711 n_nop=540135664 n_act=3116527 n_pre=3116511 n_ref_event=0 n_req=12300006 n_rd=10956404 n_rd_L2_A=0 n_write=0 n_wr_bk=5374408 bw_util=0.05805
n_activity=229567003 dram_eff=0.1423
bk0: 682612a 553057434i bk1: 682960a 553129394i bk2: 687576a 553150025i bk3: 687408a 553285693i bk4: 679264a 552932451i bk5: 679476a 553026193i bk6: 688388a 552828384i bk7: 688392a 552891296i bk8: 682512a 552630698i bk9: 682628a 552626229i bk10: 688148a 552584793i bk11: 688024a 552573323i bk12: 682332a 553054466i bk13: 682328a 553095311i bk14: 687152a 553358397i bk15: 687204a 553365472i 

------------------------------------------------------------------------

Row_Buffer_Locality = 0.746624
Row_Buffer_Locality_read = 0.787481
Row_Buffer_Locality_write = 0.413451
Bank_Level_Parallism = 1.262653
Bank_Level_Parallism_Col = 1.159248
Bank_Level_Parallism_Ready = 1.023178
write_to_read_ratio_blp_rw_average = 0.348944
GrpLevelPara = 1.127216 

BW Util details:
bwutil = 0.058047 
total_CMD = 562678711 
util_bw = 32661624 
Wasted_Col = 59837479 
Wasted_Row = 45344155 
Idle = 424835453 

BW Util Bottlenecks: 
RCDc_limit = 34928832 
RCDWRc_limit = 6492591 
WTRc_limit = 14861181 
RTWc_limit = 8328123 
CCDLc_limit = 11306940 
rwq = 0 
CCDLc_limit_alone = 9810974 
WTRc_limit_alone = 13882471 
RTWc_limit_alone = 7810867 

Commands details: 
total_CMD = 562678711 
n_nop = 540135664 
Read = 10956404 
Write = 0 
L2_Alloc = 0 
L2_WB = 5374408 
n_act = 3116527 
n_pre = 3116511 
n_ref = 0 
n_req = 12300006 
total_req = 16330812 

Dual Bus Interface Util: 
issued_total_row = 6233038 
issued_total_col = 16330812 
Row_Bus_Util =  0.011077 
CoL_Bus_Util = 0.029023 
Either_Row_CoL_Bus_Util = 0.040064 
Issued_on_Two_Bus_Simul_Util = 0.000037 
issued_two_Eff = 0.000923 
queue_avg = 0.102752 


dram_util_bins: 0 0 0 0 0 0 0 0 0 0
dram_eff_bins: 0 0 0 0 0 0 0 0 0 0
mrqq: max=12 avg=0.102752
Memory Partition 3: 
Cache L2_bank_006:
MSHR contents

Cache L2_bank_007:
MSHR contents

In Dram Latency Queue (total = 0): 
DRAM[3]: 16 bks, busW=4 BL=8 CL=16, tRRD=8 tCCD=2, tRCD=16 tRAS=37 tRP=16 tRC=52
n_cmd=562678711 n_nop=540124168 n_act=3117169 n_pre=3117153 n_ref_event=0 n_req=12310029 n_rd=10966420 n_rd_L2_A=0 n_write=0 n_wr_bk=5374436 bw_util=0.05808
n_activity=229701517 dram_eff=0.1423
bk0: 683296a 553025577i bk1: 684140a 553093892i bk2: 687964a 553160955i bk3: 687740a 553286983i bk4: 679616a 552896492i bk5: 679832a 553001831i bk6: 688868a 552821294i bk7: 689204a 552922362i bk8: 682868a 552615768i bk9: 683040a 552627678i bk10: 688804a 552586470i bk11: 689136a 552593514i bk12: 682520a 553083050i bk13: 683128a 553083085i bk14: 688200a 553341502i bk15: 688064a 553373431i 

------------------------------------------------------------------------

Row_Buffer_Locality = 0.746778
Row_Buffer_Locality_read = 0.787645
Row_Buffer_Locality_write = 0.413227
Bank_Level_Parallism = 1.262886
Bank_Level_Parallism_Col = 1.159181
Bank_Level_Parallism_Ready = 1.023167
write_to_read_ratio_blp_rw_average = 0.348868
GrpLevelPara = 1.127283 

BW Util details:
bwutil = 0.058082 
total_CMD = 562678711 
util_bw = 32681712 
Wasted_Col = 59863003 
Wasted_Row = 45348065 
Idle = 424785931 

BW Util Bottlenecks: 
RCDc_limit = 34939628 
RCDWRc_limit = 6492879 
WTRc_limit = 14852708 
RTWc_limit = 8336291 
CCDLc_limit = 11301500 
rwq = 0 
CCDLc_limit_alone = 9814874 
WTRc_limit_alone = 13878953 
RTWc_limit_alone = 7823420 

Commands details: 
total_CMD = 562678711 
n_nop = 540124168 
Read = 10966420 
Write = 0 
L2_Alloc = 0 
L2_WB = 5374436 
n_act = 3117169 
n_pre = 3117153 
n_ref = 0 
n_req = 12310029 
total_req = 16340856 

Dual Bus Interface Util: 
issued_total_row = 6234322 
issued_total_col = 16340856 
Row_Bus_Util =  0.011080 
CoL_Bus_Util = 0.029041 
Either_Row_CoL_Bus_Util = 0.040084 
Issued_on_Two_Bus_Simul_Util = 0.000037 
issued_two_Eff = 0.000915 
queue_avg = 0.103007 


dram_util_bins: 0 0 0 0 0 0 0 0 0 0
dram_eff_bins: 0 0 0 0 0 0 0 0 0 0
mrqq: max=14 avg=0.103007
Memory Partition 4: 
Cache L2_bank_008:
MSHR contents

Cache L2_bank_009:
MSHR contents

In Dram Latency Queue (total = 0): 
DRAM[4]: 16 bks, busW=4 BL=8 CL=16, tRRD=8 tCCD=2, tRCD=16 tRAS=37 tRP=16 tRC=52
n_cmd=562678711 n_nop=540110318 n_act=3117946 n_pre=3117930 n_ref_event=0 n_req=12322477 n_rd=10978876 n_rd_L2_A=0 n_write=0 n_wr_bk=5374404 bw_util=0.05813
n_activity=229798108 dram_eff=0.1423
bk0: 683908a 553013927i bk1: 684488a 553102527i bk2: 688780a 553181942i bk3: 688756a 553297126i bk4: 680380a 552903080i bk5: 680536a 552960081i bk6: 690212a 552832338i bk7: 690180a 552942968i bk8: 683412a 552607331i bk9: 683740a 552604622i bk10: 689604a 552582004i bk11: 690024a 552577908i bk12: 683364a 553067162i bk13: 683684a 553087673i bk14: 688624a 553365706i bk15: 689184a 553360622i 

------------------------------------------------------------------------

Row_Buffer_Locality = 0.746971
Row_Buffer_Locality_read = 0.787994
Row_Buffer_Locality_write = 0.411762
Bank_Level_Parallism = 1.263625
Bank_Level_Parallism_Col = 1.159462
Bank_Level_Parallism_Ready = 1.023201
write_to_read_ratio_blp_rw_average = 0.349130
GrpLevelPara = 1.127537 

BW Util details:
bwutil = 0.058127 
total_CMD = 562678711 
util_bw = 32706560 
Wasted_Col = 59884969 
Wasted_Row = 45272070 
Idle = 424815112 

BW Util Bottlenecks: 
RCDc_limit = 34920170 
RCDWRc_limit = 6507105 
WTRc_limit = 14855565 
RTWc_limit = 8379596 
CCDLc_limit = 11286467 
rwq = 0 
CCDLc_limit_alone = 9804209 
WTRc_limit_alone = 13887038 
RTWc_limit_alone = 7865865 

Commands details: 
total_CMD = 562678711 
n_nop = 540110318 
Read = 10978876 
Write = 0 
L2_Alloc = 0 
L2_WB = 5374404 
n_act = 3117946 
n_pre = 3117930 
n_ref = 0 
n_req = 12322477 
total_req = 16353280 

Dual Bus Interface Util: 
issued_total_row = 6235876 
issued_total_col = 16353280 
Row_Bus_Util =  0.011082 
CoL_Bus_Util = 0.029063 
Either_Row_CoL_Bus_Util = 0.040109 
Issued_on_Two_Bus_Simul_Util = 0.000037 
issued_two_Eff = 0.000920 
queue_avg = 0.102945 


dram_util_bins: 0 0 0 0 0 0 0 0 0 0
dram_eff_bins: 0 0 0 0 0 0 0 0 0 0
mrqq: max=13 avg=0.102945
Memory Partition 5: 
Cache L2_bank_010:
MSHR contents

Cache L2_bank_011:
MSHR contents

In Dram Latency Queue (total = 0): 
DRAM[5]: 16 bks, busW=4 BL=8 CL=16, tRRD=8 tCCD=2, tRCD=16 tRAS=37 tRP=16 tRC=52
n_cmd=562678711 n_nop=540097051 n_act=3119665 n_pre=3119649 n_ref_event=0 n_req=12332555 n_rd=10988956 n_rd_L2_A=0 n_write=0 n_wr_bk=5374396 bw_util=0.05816
n_activity=229902223 dram_eff=0.1424
bk0: 684348a 553017595i bk1: 684660a 553078224i bk2: 689904a 553173812i bk3: 689272a 553305204i bk4: 680976a 552867367i bk5: 680944a 552961567i bk6: 690652a 552840556i bk7: 691020a 552912606i bk8: 683884a 552587185i bk9: 684516a 552603019i bk10: 690392a 552545195i bk11: 690672a 552564081i bk12: 683744a 553068487i bk13: 683952a 553084919i bk14: 689732a 553329404i bk15: 690288a 553387641i 

------------------------------------------------------------------------

Row_Buffer_Locality = 0.747038
Row_Buffer_Locality_read = 0.788082
Row_Buffer_Locality_write = 0.411349
Bank_Level_Parallism = 1.264430
Bank_Level_Parallism_Col = 1.160049
Bank_Level_Parallism_Ready = 1.023318
write_to_read_ratio_blp_rw_average = 0.349205
GrpLevelPara = 1.128112 

BW Util details:
bwutil = 0.058162 
total_CMD = 562678711 
util_bw = 32726704 
Wasted_Col = 59945759 
Wasted_Row = 45246269 
Idle = 424759979 

BW Util Bottlenecks: 
RCDc_limit = 34939969 
RCDWRc_limit = 6508374 
WTRc_limit = 14873797 
RTWc_limit = 8423177 
CCDLc_limit = 11292383 
rwq = 0 
CCDLc_limit_alone = 9808308 
WTRc_limit_alone = 13905166 
RTWc_limit_alone = 7907733 

Commands details: 
total_CMD = 562678711 
n_nop = 540097051 
Read = 10988956 
Write = 0 
L2_Alloc = 0 
L2_WB = 5374396 
n_act = 3119665 
n_pre = 3119649 
n_ref = 0 
n_req = 12332555 
total_req = 16363352 

Dual Bus Interface Util: 
issued_total_row = 6239314 
issued_total_col = 16363352 
Row_Bus_Util =  0.011089 
CoL_Bus_Util = 0.029081 
Either_Row_CoL_Bus_Util = 0.040132 
Issued_on_Two_Bus_Simul_Util = 0.000037 
issued_two_Eff = 0.000930 
queue_avg = 0.103015 


dram_util_bins: 0 0 0 0 0 0 0 0 0 0
dram_eff_bins: 0 0 0 0 0 0 0 0 0 0
mrqq: max=14 avg=0.103015
Memory Partition 6: 
Cache L2_bank_012:
MSHR contents

Cache L2_bank_013:
MSHR contents

In Dram Latency Queue (total = 0): 
DRAM[6]: 16 bks, busW=4 BL=8 CL=16, tRRD=8 tCCD=2, tRCD=16 tRAS=37 tRP=16 tRC=52
n_cmd=562678711 n_nop=540087432 n_act=3118667 n_pre=3118651 n_ref_event=0 n_req=12344170 n_rd=11000568 n_rd_L2_A=0 n_write=0 n_wr_bk=5374408 bw_util=0.0582
n_activity=230039482 dram_eff=0.1424
bk0: 684788a 553009496i bk1: 685000a 553082880i bk2: 689944a 553194252i bk3: 690388a 553291383i bk4: 681632a 552846583i bk5: 682148a 552918418i bk6: 691916a 552850111i bk7: 692064a 552934977i bk8: 684536a 552588853i bk9: 684768a 552611900i bk10: 691344a 552545044i bk11: 691764a 552557648i bk12: 684444a 553066718i bk13: 684764a 553070390i bk14: 690524a 553351693i bk15: 690544a 553409412i 

------------------------------------------------------------------------

Row_Buffer_Locality = 0.747357
Row_Buffer_Locality_read = 0.788472
Row_Buffer_Locality_write = 0.410731
Bank_Level_Parallism = 1.264435
Bank_Level_Parallism_Col = 1.160186
Bank_Level_Parallism_Ready = 1.023432
write_to_read_ratio_blp_rw_average = 0.349532
GrpLevelPara = 1.128093 

BW Util details:
bwutil = 0.058204 
total_CMD = 562678711 
util_bw = 32749952 
Wasted_Col = 59966769 
Wasted_Row = 45221847 
Idle = 424740143 

BW Util Bottlenecks: 
RCDc_limit = 34919651 
RCDWRc_limit = 6514477 
WTRc_limit = 14867921 
RTWc_limit = 8458497 
CCDLc_limit = 11284401 
rwq = 0 
CCDLc_limit_alone = 9801048 
WTRc_limit_alone = 13901731 
RTWc_limit_alone = 7941334 

Commands details: 
total_CMD = 562678711 
n_nop = 540087432 
Read = 11000568 
Write = 0 
L2_Alloc = 0 
L2_WB = 5374408 
n_act = 3118667 
n_pre = 3118651 
n_ref = 0 
n_req = 12344170 
total_req = 16374976 

Dual Bus Interface Util: 
issued_total_row = 6237318 
issued_total_col = 16374976 
Row_Bus_Util =  0.011085 
CoL_Bus_Util = 0.029102 
Either_Row_CoL_Bus_Util = 0.040150 
Issued_on_Two_Bus_Simul_Util = 0.000037 
issued_two_Eff = 0.000930 
queue_avg = 0.103032 


dram_util_bins: 0 0 0 0 0 0 0 0 0 0
dram_eff_bins: 0 0 0 0 0 0 0 0 0 0
mrqq: max=15 avg=0.103032
Memory Partition 7: 
Cache L2_bank_014:
MSHR contents

Cache L2_bank_015:
MSHR contents

In Dram Latency Queue (total = 0): 
DRAM[7]: 16 bks, busW=4 BL=8 CL=16, tRRD=8 tCCD=2, tRCD=16 tRAS=37 tRP=16 tRC=52
n_cmd=562678711 n_nop=540084184 n_act=3113069 n_pre=3113053 n_ref_event=0 n_req=12358417 n_rd=11014812 n_rd_L2_A=0 n_write=0 n_wr_bk=5374420 bw_util=0.05825
n_activity=230008050 dram_eff=0.1425
bk0: 685736a 553003989i bk1: 686884a 553059792i bk2: 691080a 553202433i bk3: 691516a 553353731i bk4: 682268a 552828607i bk5: 683032a 552906620i bk6: 692284a 552888718i bk7: 692804a 552965935i bk8: 685364a 552562488i bk9: 685720a 552588778i bk10: 691948a 552574169i bk11: 692744a 552592552i bk12: 685092a 553063787i bk13: 685912a 553064619i bk14: 691144a 553399623i bk15: 691284a 553436773i 

------------------------------------------------------------------------

Row_Buffer_Locality = 0.748101
Row_Buffer_Locality_read = 0.789468
Row_Buffer_Locality_write = 0.408977
Bank_Level_Parallism = 1.264911
Bank_Level_Parallism_Col = 1.160532
Bank_Level_Parallism_Ready = 1.023434
write_to_read_ratio_blp_rw_average = 0.350268
GrpLevelPara = 1.128369 

BW Util details:
bwutil = 0.058254 
total_CMD = 562678711 
util_bw = 32778464 
Wasted_Col = 59948987 
Wasted_Row = 45065923 
Idle = 424885337 

BW Util Bottlenecks: 
RCDc_limit = 34802423 
RCDWRc_limit = 6532014 
WTRc_limit = 14912063 
RTWc_limit = 8507448 
CCDLc_limit = 11277792 
rwq = 0 
CCDLc_limit_alone = 9795630 
WTRc_limit_alone = 13948469 
RTWc_limit_alone = 7988880 

Commands details: 
total_CMD = 562678711 
n_nop = 540084184 
Read = 11014812 
Write = 0 
L2_Alloc = 0 
L2_WB = 5374420 
n_act = 3113069 
n_pre = 3113053 
n_ref = 0 
n_req = 12358417 
total_req = 16389232 

Dual Bus Interface Util: 
issued_total_row = 6226122 
issued_total_col = 16389232 
Row_Bus_Util =  0.011065 
CoL_Bus_Util = 0.029127 
Either_Row_CoL_Bus_Util = 0.040155 
Issued_on_Two_Bus_Simul_Util = 0.000037 
issued_two_Eff = 0.000922 
queue_avg = 0.102477 


dram_util_bins: 0 0 0 0 0 0 0 0 0 0
dram_eff_bins: 0 0 0 0 0 0 0 0 0 0
mrqq: max=15 avg=0.102477

icnt_total_pkts_mem_to_simt=218569472
icnt_total_pkts_simt_to_mem=218569472
LD_mem_lat_dist  0 0 0 0 0 0 0 0 0 0 0 0 0 0 0 0 0 0 0 0 0 0 0 0 0 0 0
ST_mem_lat_dist  0 0 0 0 0 0 0 0 0 0 0 0 0 0 0 0 0 0 0 0 0 0 0 0 0 0 0


gpgpu_simulation_time = 1 days, 22 hrs, 40 min, 53 sec (168053 sec)
gpgpu_simulation_rate = 73842 (inst/sec)
gpgpu_simulation_rate = 1303 (cycle/sec)
gpgpu_silicon_slowdown = 1135840x
GPGPU-Sim: synchronize waiting for inactive GPU simulation
GPGPU-Sim API: Stream Manager State
GPGPU-Sim: detected inactive GPU simulation thread
GPGPU-Sim PTX: Setting up arguments for 8 bytes starting at 0x7ffda5e26f38..
GPGPU-Sim PTX: Setting up arguments for 8 bytes starting at 0x7ffda5e26f30..
GPGPU-Sim PTX: Setting up arguments for 8 bytes starting at 0x7ffda5e26f28..
GPGPU-Sim PTX: Setting up arguments for 4 bytes starting at 0x7ffda5e26f24..

GPGPU-Sim PTX: cudaLaunch for 0x0x558539f14062 (mode=performance simulation) on stream 0
GPGPU-Sim PTX: PDOM analysis already done for _Z17fdtd_step3_kernelPfS_S_i 
GPGPU-Sim PTX: pushing kernel '_Z17fdtd_step3_kernelPfS_S_i' to stream 0, gridDim= (64,256,1) blockDim = (32,8,1) 
GPGPU-Sim uArch: Shader 10 bind to kernel 84 '_Z17fdtd_step3_kernelPfS_S_i'
GPGPU-Sim uArch: CTA/core = 8, limited by: threads
GPGPU-Sim uArch: Shader 11 bind to kernel 84 '_Z17fdtd_step3_kernelPfS_S_i'
GPGPU-Sim uArch: Shader 12 bind to kernel 84 '_Z17fdtd_step3_kernelPfS_S_i'
GPGPU-Sim uArch: Shader 13 bind to kernel 84 '_Z17fdtd_step3_kernelPfS_S_i'
GPGPU-Sim uArch: Shader 0 bind to kernel 84 '_Z17fdtd_step3_kernelPfS_S_i'
GPGPU-Sim uArch: Shader 1 bind to kernel 84 '_Z17fdtd_step3_kernelPfS_S_i'
GPGPU-Sim uArch: Shader 2 bind to kernel 84 '_Z17fdtd_step3_kernelPfS_S_i'
GPGPU-Sim uArch: Shader 3 bind to kernel 84 '_Z17fdtd_step3_kernelPfS_S_i'
GPGPU-Sim uArch: Shader 4 bind to kernel 84 '_Z17fdtd_step3_kernelPfS_S_i'
GPGPU-Sim uArch: Shader 5 bind to kernel 84 '_Z17fdtd_step3_kernelPfS_S_i'
GPGPU-Sim uArch: Shader 6 bind to kernel 84 '_Z17fdtd_step3_kernelPfS_S_i'
GPGPU-Sim uArch: Shader 7 bind to kernel 84 '_Z17fdtd_step3_kernelPfS_S_i'
GPGPU-Sim uArch: Shader 8 bind to kernel 84 '_Z17fdtd_step3_kernelPfS_S_i'
GPGPU-Sim uArch: Shader 9 bind to kernel 84 '_Z17fdtd_step3_kernelPfS_S_i'
\00\00\00\00\00\00\00\00\00\00\00\00\00\00\00\00\00\00\00\00\00\00\00\00\00\00\00\00\00\00\00\00\00\00\00\00\00\00\00\00\00\00\00\00\00\00\00\00\00\00\00\00\00\00\00\00\00\00\00\00\00\00\00\00\00\00\00\00\00\00\00\00\00\00\00\00\00\00\00\00\00\00\00\00\00\00\00\00\00\00\00\00\00\00\00\00\00\00\00\00\00\00\00\00\00\00\00\00\00\00\00\00\00\00\00\00\00\00\00\00\00\00\00\00\00\00\00\00\00\00\00\00\00\00\00\00\00\00\00\00\00\00\00\00\00\00\00\00\00\00\00\00\00\00\00\00\00\00\00\00\00\00\00\00\00\00\00\00\00\00\00\00\00\00\00\00\00\00\00\00\00\00\00\00\00\00\00\00\00\00\00\00\00\00\00\00\00\00\00\00\00\00\00\00\00\00\00\00\00\00\00\00\00\00\00\00\00\00\00\00\00\00\00\00\00\00\00\00\00\00\00\00\00\00\00\00\00\00\00\00\00\00\00\00\00\00\00\00\00\00\00\00\00\00\00\00\00\00\00\00\00\00\00\00\00\00\00\00\00\00\00\00\00\00\00\00\00\00\00\00\00\00\00\00\00\00\00\00\00\00\00\00\00\00\00\00\00\00\00\00\00\00\00\00\00\00\00\00\00\00\00\00\00\00\00\00\00\00\00\00\00\00\00\00\00\00\00\00\00\00\00\00\00\00\00\00\00\00\00\00\00\00\00\00\00\00\00
